geometry optimzed in LAMMPS
_audit_creation_date              2020-11-30 
_audit_creation_method            'lammps2cif' 
_symmetry_space_group_name_H-M    'P1' 
_symmetry_Int_Tables_number       1 
_symmetry_cell_setting            triclinic 
loop_ 
_symmetry_equiv_pos_as_xyz 
  x,y,z 
_cell_length_a                    34.86579066760422 
_cell_length_b                    35.265998590483974 
_cell_length_c                    34.49778918704825 
_cell_angle_alpha                 90.1371791074351 
_cell_angle_beta                  88.91188058659989 
_cell_angle_gamma                 121.12140241337053 
loop_ 
_atom_site_label 
_atom_site_type_symbol 
_atom_site_fract_x 
_atom_site_fract_y 
_atom_site_fract_z 
_atom_site_charge 
C1          C  0.98478381  0.01823510  0.03349632     0.03800
C2          C  0.02852046  0.03118564  0.54396843    -0.12350
C3          C  0.03630257  0.00140500  0.56461410     0.01300
C4          C  0.49944448  0.46097859  0.57680558    -0.10870
C5          C  0.46008120  0.44603331  0.05707723     0.03790
C6          C  0.45032183  0.47648746  0.04235599    -0.10290
H7          H  0.05622561  0.06204240  0.53255153     0.09390
H8          H  0.50383282  0.43646809  0.59120353     0.06920
H9          H  0.41805900  0.46494187  0.02929167     0.06770
C10         C  0.17394408  0.38743321  0.23576938     0.03800
C11         C  0.14162025  0.34363358  0.22797565    -0.12350
C12         C  0.15387216  0.31255338  0.22242787     0.01300
C13         C  0.19842676  0.32589865  0.21463887    -0.10870
C14         C  0.23091364  0.36719780  0.22861013     0.03790
C15         C  0.21920254  0.40004570  0.23246794    -0.10290
H16         H  0.10685978  0.33092672  0.23600882     0.09390
H17         H  0.20701558  0.30082518  0.20959544     0.06920
H18         H  0.24358334  0.43311556  0.24139679     0.06770
C19         C  0.39319098  0.19955558  0.19076520     0.03800
C20         C  0.34789714  0.16734881  0.18843410    -0.12350
C21         C  0.32918926  0.15854364  0.15162881     0.01300
C22         C  0.35183598  0.19064678  0.12298836    -0.10870
C23         C  0.37869456  0.23371624  0.13635534     0.03790
C24         C  0.40908921  0.23575901  0.16394564    -0.10290
H25         H  0.33167138  0.14436704  0.21216328     0.09390
H26         H  0.33848045  0.18498384  0.09458351     0.06920
H27         H  0.44235439  0.26477649  0.16534823     0.06770
C28         C  0.30253670  0.26589083  0.42606862     0.03800
C29         C  0.34241514  0.30443034  0.43417310    -0.12350
C30         C  0.34257957  0.33941692  0.45212097     0.01300
C31         C  0.30384030  0.34071356  0.45687073    -0.10870
C32         C  0.26244051  0.30164957  0.45430876     0.03790
C33         C  0.26149459  0.26316862  0.43843770    -0.10290
H34         H  0.37412313  0.30592095  0.43040824     0.09390
H35         H  0.30660759  0.36944010  0.47114993     0.06920
H36         H  0.22988158  0.23234448  0.43564270     0.06770
C37         C  0.36983158  0.30688621  0.30636440     0.03800
C38         C  0.40664761  0.33859953  0.28255801    -0.12350
C39         C  0.41564746  0.38252813  0.27742748     0.01300
C40         C  0.39301641  0.39627901  0.30095628    -0.10870
C41         C  0.35207881  0.36557354  0.31868623     0.03790
C42         C  0.34204523  0.32103388  0.32325459    -0.10290
H43         H  0.42812134  0.32950842  0.26773228     0.09390
H44         H  0.40430144  0.43097859  0.29985481     0.06920
H45         H  0.31237692  0.29709250  0.33929474     0.06770
C46         C  0.28041142  0.35516760  0.10611056     0.03800
C47         C  0.26245124  0.31917181  0.13151746    -0.12350
C48         C  0.28952938  0.31321485  0.15674961     0.01300
C49         C  0.33325506  0.34870993  0.16347986    -0.10870
C50         C  0.35255610  0.38799103  0.14182045     0.03790
C51         C  0.32559043  0.39134740  0.11234903    -0.10290
H52         H  0.22819152  0.29228314  0.12809438     0.09390
H53         H  0.35392035  0.34483755  0.18425361     0.06920
H54         H  0.33984864  0.42054537  0.09397476     0.06770
C55         C  0.23852662  0.04081312  0.43324913     0.03800
C56         C  0.23996987  0.50074891  0.43908803    -0.12350
C57         C  0.21414948  0.47068893  0.47032866     0.01300
C58         C  0.19649212  0.48594911  0.49788497    -0.10870
C59         C  0.19014948  0.02095670  0.48986134     0.03790
C60         C  0.21111283  0.04847916  0.45810544    -0.10290
H61         H  0.25886675  0.49255088  0.41911631     0.09390
H62         H  0.18000607  0.46599290  0.52349012     0.06920
H63         H  0.20590059  0.07579828  0.45300210     0.06770
C64         C  0.02125785  0.12029688  0.11368886     0.03800
C65         C  0.98290101  0.12285028  0.11661144    -0.12350
C66         C  0.98511912  0.16323563  0.11447447     0.01300
C67         C  0.01802449  0.19615593  0.09137543    -0.10870
C68         C  0.05643523  0.19518524  0.08110950     0.03790
C69         C  0.05957511  0.15767675  0.09468612    -0.10290
H70         H  0.95431283  0.09604028  0.13082667     0.09390
H71         H  0.01570177  0.22509864  0.08568084     0.06920
H72         H  0.09067928  0.15813685  0.09117668     0.06770
C73         C  0.13339564  0.42017340  0.10184678     0.03800
C74         C  0.17302301  0.45001688  0.11963761    -0.12350
C75         C  0.17895711  0.48911158  0.13363080     0.01300
C76         C  0.14314437  0.49599151  0.13691275    -0.10870
C77         C  0.09954538  0.46202619  0.13080023     0.03790
C78         C  0.09425944  0.42297921  0.11157155    -0.10290
H79         H  0.20145001  0.44543116  0.11879589     0.09390
H80         H  0.14953994  0.52779142  0.14717128     0.06920
H81         H  0.06131981  0.39604964  0.10450859     0.06770
O82         O  0.08342509  0.26652095  0.04892973    -0.84680
O83         O  0.10648972  0.35731145  0.05775852    -0.81720
C84         C  0.13932274  0.39192731  0.07190467     0.98790
O85         O  0.17979416  0.40399588  0.06004440    -0.81760
O86         O  0.24870939  0.38394253  0.06185414    -0.84400
C87         C  0.24991931  0.35063411  0.07348568     1.03310
O88         O  0.22219933  0.31196013  0.05899507    -0.77160
O89         O  0.13032694  0.24207150  0.05240553    -0.77350
C90         C  0.09204051  0.23639994  0.05994268     1.03260
O91         O  0.07627391  0.31073595  0.98398818    -0.84670
O92         O  0.16455145  0.39123271  0.98734820    -0.81740
C93         C  0.20633824  0.42567954  0.48115720     0.98810
O94         O  0.23976321  0.42529241  0.99480752    -0.81760
O95         O  0.22884179  0.34028417  0.98625572    -0.84370
C96         C  0.22456908  0.30186634  0.47583146     1.03280
O97         O  0.19150669  0.26511547  0.98815247    -0.77190
O98         O  0.11375095  0.27349959  0.98019817    -0.77340
C99         C  0.07942176  0.27847795  0.47070076     1.03240
Cr100      Cr  0.12326723  0.32627696  0.01853109     1.93740
Cr101      Cr  0.20283209  0.37301519  0.02323648     1.93210
Cr102      Cr  0.17071180  0.29442833  0.01981435     1.39100
O103        O  0.16297862  0.32899600  0.04403116    -1.22420
C104        C  0.46212074  0.19915190  0.42243592     0.03800
C105        C  0.45672414  0.16035480  0.43762310    -0.12350
C106        C  0.98971869  0.16080711  0.45902240     0.01300
C107        C  0.03035617  0.19893544  0.46510850    -0.10870
C108        C  0.03824215  0.23993428  0.45282313     0.03790
C109        C  0.00291760  0.24043227  0.43153772    -0.10290
H110        H  0.42613642  0.12874562  0.43340197     0.09390
H111        H  0.05467074  0.19633267  0.48226427     0.06920
H112        H  0.00719652  0.27166518  0.42214007     0.06770
C113        C  0.19115613  0.07021341  0.30092863     0.03800
C114        C  0.17609561  0.02821941  0.31717296    -0.12350
C115        C  0.13186486  0.99229508  0.31178555     0.01300
C116        C  0.10112427  0.00038315  0.29385288    -0.10870
C117        C  0.11544680  0.03755666  0.27061804     0.03790
C118        C  0.16023692  0.07457559  0.27654984    -0.10290
H119        H  0.19961786  0.02335462  0.33323504     0.09390
H120        H  0.06640762  0.97441834  0.29287413     0.06920
H121        H  0.17091080  0.10567035  0.26198832     0.06770
C122        C  0.42843222  0.12815392  0.29389170     0.03800
C123        C  0.47241642  0.16362996  0.29741098    -0.12350
C124        C  0.50889885  0.15777477  0.29083759     0.01300
C125        C  0.50263619  0.11601144  0.28402017    -0.10870
C126        C  0.46209832  0.08308355  0.26965603     0.03790
C127        C  0.42349981  0.08728511  0.27836410    -0.10290
H128        H  0.47862976  0.19638834  0.30396421     0.09390
H129        H  0.53221495  0.11368960  0.27939008     0.06920
H130        H  0.39054722  0.05965792  0.27225726     0.06770
O131        O  0.25321616  0.10386120  0.39251119    -0.84680
O132        O  0.27435913  0.19428000  0.39632719    -0.81720
C133        C  0.30788018  0.23165770  0.40464135     0.98790
O134        O  0.34750045  0.24185671  0.39207970    -0.81760
O135        O  0.41844775  0.22432729  0.38961724    -0.84400
C136        C  0.42324266  0.19224794  0.39831921     1.03310
O137        O  0.39374325  0.15267178  0.38643527    -0.77250
O138        O  0.30212627  0.08154388  0.39059952    -0.77350
C139        C  0.26545709  0.07639069  0.40341356     1.03260
O140        O  0.23609116  0.14220742  0.32794921    -0.84670
O141        O  0.32270637  0.22580404  0.32463545    -0.81740
C142        C  0.36324351  0.26174939  0.31738750     0.98810
O143        O  0.39884426  0.26100330  0.32439576    -0.81760
O144        O  0.39586464  0.17446726  0.31759604    -0.84370
C145        C  0.39015870  0.13431704  0.30962576     1.03280
O146        O  0.35420085  0.09928961  0.32083207    -0.77190
O147        O  0.27133531  0.10321975  0.32103672    -0.77340
C148        C  0.23609773  0.10818948  0.31503869     1.03240
Cr149      Cr  0.28755603  0.16114683  0.35740176     1.93740
Cr150      Cr  0.36849694  0.20908431  0.35447095     1.93210
Cr151      Cr  0.33587462  0.13034993  0.35321901     1.39100
O152        O  0.33108047  0.16626456  0.37828839    -1.22420
O153        O  0.42971232  0.41401678  0.16269054    -0.84680
O154        O  0.02588634  0.43859244  0.15916933    -0.81720
C155        C  0.06403301  0.97063032  0.14811962     0.98790
O156        O  0.07430366  0.01098613  0.15584482    -0.81760
O157        O  0.05139085  0.08054245  0.14969103    -0.84400
C158        C  0.01754367  0.08205070  0.13863202     1.03310
O159        O  0.47840849  0.05268637  0.15297466    -0.77160
O160        O  0.40728384  0.46225807  0.16048967    -0.77350
C161        C  0.39955781  0.42365122  0.15363520     1.03260
O162        O  0.47143231  0.40546428  0.22733289    -0.84670
O163        O  0.04800375  0.49277670  0.23057856    -0.81740
C164        C  0.08334386  0.53273292  0.23883163     0.98810
O165        O  0.09120207  0.06705165  0.21931048    -0.81760
O166        O  0.00423247  0.05663601  0.22863981    -0.84370
C167        C  0.96479262  0.05151371  0.24019252     1.03280
O168        O  0.42906793  0.02206422  0.22427089    -0.77190
O169        O  0.43949605  0.44742281  0.23468758    -0.77340
C170        C  0.44423570  0.41359217  0.24528013     1.03240
Cr171      Cr  0.48858417  0.45299373  0.19382310     1.93740
Cr172      Cr  0.03957206  0.03317963  0.18941062     1.93210
Cr173      Cr  0.45991212  0.50200502  0.19236766     1.39100
O174        O  0.99527523  0.49425272  0.16818863    -1.22420
C175        C  0.34849858  0.25163591  0.14589479    -0.04660
C176        C  0.33871612  0.25785302  0.18514413    -0.01780
C177        C  0.30133715  0.26159630  0.19376612     0.03210
C178        C  0.27875732  0.26718119  0.16360302    -0.04660
C179        C  0.27852393  0.24666396  0.12876167    -0.01770
C180        C  0.31770655  0.24765031  0.11715063     0.03200
C181        C  0.36482455  0.25861508  0.21711799     0.37850
C182        C  0.23946677  0.22745046  0.10460053     0.37840
C183        C  0.32497014  0.24228155  0.07643688     0.36270
C184        C  0.28632917  0.26010429  0.23320519     0.36270
N185        N  0.33113175  0.23714987  0.04425698    -0.38550
N186        N  0.27492220  0.25634855  0.26532028    -0.38550
N187        N  0.20812104  0.21186631  0.08540933    -0.38000
N188        N  0.38600674  0.25659238  0.24139479    -0.38000
C189        C  0.42256830  0.18637349  0.21010038    -0.04660
C190        C  0.40965411  0.14273722  0.19965285    -0.01780
C191        C  0.42174995  0.13917510  0.16169690     0.03210
C192        C  0.46323234  0.17392950  0.14640237    -0.04660
C193        C  0.48824044  0.21288972  0.16975936    -0.01770
C194        C  0.46809737  0.21677968  0.20424199     0.03200
C195        C  0.37113423  0.10456095  0.21774393     0.37850
C196        C  0.03269736  0.24900151  0.15912354     0.37840
C197        C  0.48998273  0.25519373  0.22888539     0.36270
C198        C  0.38973261  0.10272927  0.13813096     0.36270
N199        N  0.50740887  0.28574240  0.24882989    -0.38550
N200        N  0.36383914  0.07301411  0.12021303    -0.38550
N201        N  0.06778152  0.27870363  0.15077352    -0.38000
N202        N  0.33924780  0.07390918  0.23054729    -0.38000
C203        C  0.28903185  0.11567224  0.14409232    -0.04660
C204        C  0.28707755  0.09037826  0.11135642    -0.01780
C205        C  0.25524413  0.04531706  0.11077101     0.03210
C206        C  0.22350992  0.02649994  0.14119880    -0.04660
C207        C  0.22762142  0.05068918  0.17455080    -0.01770
C208        C  0.25650885  0.09611532  0.17418126     0.03200
C209        C  0.31514921  0.10963915  0.07694906     0.37850
C210        C  0.20026825  0.02780175  0.20815310     0.37840
C211        C  0.25123737  0.12310468  0.20320383     0.36270
C212        C  0.25753197  0.01834490  0.08009188     0.36270
N213        N  0.24840214  0.14592183  0.22574323    -0.38550
N214        N  0.26246114  0.49694580  0.05738588    -0.38550
N215        N  0.17761419  0.00669997  0.23373884    -0.38000
N216        N  0.33539179  0.12398517  0.04830461    -0.38000
C217        C  0.26404865  0.36870192  0.25669787    -0.04660
C218        C  0.25001230  0.33406391  0.28505411    -0.01780
C219        C  0.27297640  0.34261712  0.31966700     0.03210
C220        C  0.31672864  0.37810748  0.32152594    -0.04660
C221        C  0.32516850  0.41571318  0.29970587    -0.01770
C222        C  0.30337149  0.40980349  0.26426753     0.03200
C223        C  0.21478736  0.28837037  0.27980024     0.37850
C224        C  0.35520438  0.45968663  0.31439240     0.37840
C225        C  0.32133119  0.44544194  0.23586191     0.36270
C226        C  0.24952772  0.31706263  0.35377054     0.36270
N227        N  0.33457937  0.47320460  0.21258320    -0.38550
N228        N  0.22642267  0.29557141  0.37908872    -0.38550
N229        N  0.37915660  0.49467153  0.32645089    -0.38000
N230        N  0.18881843  0.25087778  0.27715331    -0.38000
C231        C  0.12111938  0.44527800  0.31361673    -0.04660
C232        C  0.09586559  0.41852352  0.28289737    -0.01780
C233        C  0.11698361  0.40817841  0.25349089     0.03210
C234        C  0.15889795  0.41203761  0.26086489    -0.04660
C235        C  0.17727839  0.42659989  0.29850999    -0.01770
C236        C  0.15510143  0.43879346  0.32551952     0.03200
C237        C  0.04775198  0.39654084  0.28529308     0.37850
C238        C  0.21702483  0.42771611  0.31158558     0.37840
C239        C  0.16069054  0.43665944  0.36639351     0.36270
C240        C  0.09416391  0.39179317  0.21708504     0.36270
N241        N  0.16297573  0.93154039  0.39889652    -0.38550
N242        N  0.07494242  0.37730037  0.18871010    -0.38550
N243        N  0.24844522  0.42939960  0.32395618    -0.38000
N244        N  0.00922313  0.37832121  0.28846755    -0.38000
C245        C  0.05114384  0.19533948  0.27576192    -0.04660
C246        C  0.07886139  0.23050830  0.29953536    -0.01780
C247        C  0.11426470  0.26898878  0.28260257     0.03210
C248        C  0.12422337  0.27015038  0.24208470    -0.04660
C249        C  0.10102298  0.23212610  0.21999896    -0.01770
C250        C  0.06251939  0.19620125  0.23605907     0.03200
C251        C  0.07111314  0.22675596  0.34109519     0.37850
C252        C  0.11599976  0.23079625  0.18080068     0.37840
C253        C  0.53141586  0.16208269  0.21129177     0.36270
C254        C  0.14069775  0.30627541  0.30760173     0.36270
N255        N  0.50283685  0.13333738  0.19485193    -0.38550
N256        N  0.16070864  0.33402757  0.32966285    -0.38550
N257        N  0.12918888  0.23028505  0.14990915    -0.38000
N258        N  0.06567933  0.22343838  0.37433713    -0.38000
C259        C  0.44435651  0.40699670  0.53279663    -0.04660
C260        C  0.40458472  0.37028325  0.04490244    -0.01780
C261        C  0.36965342  0.35052314  0.01893818     0.03210
C262        C  0.37811961  0.36327644  0.47939203    -0.04660
C263        C  0.42171108  0.39215262  0.46564015    -0.01770
C264        C  0.45537819  0.41385034  0.49257062     0.03200
C265        C  0.40202493  0.35337373  0.08337857     0.37850
C266        C  0.43110229  0.40092892  0.42431850     0.37840
C267        C  0.49994751  0.44548448  0.47872145     0.36270
C268        C  0.32506846  0.31862149  0.03267371     0.36270
N269        N  0.53514999  0.46981372  0.46575838    -0.38550
N270        N  0.28856218  0.29308289  0.04180946    -0.38550
N271        N  0.43827677  0.40758724  0.39137063    -0.38000
N272        N  0.40353064  0.34066784  0.11379523    -0.38000
C273        C  0.97587200  0.04689456  0.50992055    -0.04660
C274        C  0.95361916  0.06628582  0.02749294    -0.01780
C275        C  0.95764408  0.10407636  0.01059154     0.03210
C276        C  0.98151784  0.11977872  0.47526727    -0.04660
C277        C  0.49591396  0.09540707  0.45424374    -0.01770
C278        C  0.49170992  0.05771060  0.47117334     0.03200
C279        C  0.92503057  0.04536597  0.06130514     0.37850
C280        C  0.51394114  0.10863842  0.41490459     0.37840
C281        C  0.49588572  0.02751701  0.44575095     0.36270
C282        C  0.93909973  0.12782763  0.02959980     0.36270
N283        N  0.49758859  0.00621366  0.42100187    -0.38550
N284        N  0.92550449  0.14816493  0.04426552    -0.38550
N285        N  0.52794442  0.11882702  0.38353326    -0.38000
N286        N  0.90191260  0.02607958  0.08750924    -0.38000
C287        C  0.07937794  0.00364739  0.55701456    -0.04660
C288        C  0.07893616  0.46855186  0.53601067    -0.01780
C289        C  0.11220748  0.47874833  0.50852362     0.03210
C290        C  0.15223827  0.01926048  0.50989378    -0.04660
C291        C  0.15760394  0.05182739  0.53642928    -0.01770
C292        C  0.12033032  0.04480048  0.05889776     0.03200
C293        C  0.04377422  0.42208933  0.53933119     0.37850
C294        C  0.20064940  0.09244563  0.03983382     0.37840
C295        C  0.12458400  0.07944305  0.08426218     0.36270
C296        C  0.10405715  0.44676771  0.47799448     0.36270
N297        N  0.12960572  0.10785735  0.10439428    -0.38550
N298        N  0.09585608  0.42068002  0.45415799    -0.38550
N299        N  0.23491331  0.12499109  0.04248514    -0.38000
N300        N  0.01717656  0.38460186  0.54095041    -0.38000
C301        C  0.98477564  0.01823189  0.53350759     0.03800
C302        C  0.02852443  0.03118518  0.04396578    -0.12350
C303        C  0.03629871  0.00140120  0.06461402     0.01300
C304        C  0.49946033  0.46095142  0.07676626    -0.10870
C305        C  0.46004554  0.44603335  0.55714299     0.03790
C306        C  0.45025402  0.47646536  0.54242313    -0.10290
H307        H  0.05623316  0.06204266  0.03255386     0.09390
H308        H  0.50382473  0.43642858  0.09117120     0.06920
H309        H  0.41797451  0.46489823  0.52938402     0.06770
C310        C  0.17389405  0.38747562  0.73574610     0.03800
C311        C  0.14156393  0.34367921  0.72794517    -0.12350
C312        C  0.15380976  0.31259763  0.72237595     0.01300
C313        C  0.19835999  0.32594328  0.71456267    -0.10870
C314        C  0.23085416  0.36723087  0.72854753     0.03790
C315        C  0.21915136  0.40008308  0.73242742    -0.10290
H316        H  0.10680716  0.33097061  0.73599232     0.09390
H317        H  0.20694401  0.30087059  0.70949404     0.06920
H318        H  0.24354131  0.43314951  0.74135649     0.06770
C319        C  0.39318598  0.19956900  0.69077455     0.03800
C320        C  0.34789413  0.16735348  0.68845158    -0.12350
C321        C  0.32918004  0.15853808  0.65164862     0.01300
C322        C  0.35181363  0.19064079  0.62300568    -0.10870
C323        C  0.37866154  0.23371311  0.63636855     0.03790
C324        C  0.40906743  0.23576974  0.66395398    -0.10290
H325        H  0.33167802  0.14437346  0.71218349     0.09390
H326        H  0.33845897  0.18496994  0.59460086     0.06920
H327        H  0.44232962  0.26479269  0.66534938     0.06770
C328        C  0.30253885  0.26591576  0.92606141     0.03800
C329        C  0.34241103  0.30448484  0.93412231    -0.12350
C330        C  0.34256062  0.33947057  0.95206030     0.01300
C331        C  0.30380963  0.34074323  0.95681274    -0.10870
C332        C  0.26242075  0.30165923  0.95428509     0.03790
C333        C  0.26149343  0.26317370  0.93844931    -0.10290
H334        H  0.37412923  0.30600014  0.93034034     0.09390
H335        H  0.30656848  0.36947430  0.97107532     0.06920
H336        H  0.22989019  0.23233153  0.93569055     0.06770
C337        C  0.36982527  0.30688377  0.80636448     0.03800
C338        C  0.40664559  0.33860066  0.78256436    -0.12350
C339        C  0.41563758  0.38252612  0.77742955     0.01300
C340        C  0.39298481  0.39626624  0.80094297    -0.10870
C341        C  0.35203878  0.36555219  0.81865545     0.03790
C342        C  0.34202263  0.32102006  0.82323657    -0.10290
H343        H  0.42812660  0.32951310  0.76774585     0.09390
H344        H  0.40426197  0.43096327  0.79983745     0.06920
H345        H  0.31235603  0.29707090  0.83927102     0.06770
C346        C  0.28041042  0.35517872  0.60611461     0.03800
C347        C  0.26244421  0.31918585  0.63152526    -0.12350
C348        C  0.28951744  0.31322355  0.65675969     0.01300
C349        C  0.33324735  0.34871306  0.66348701    -0.10870
C350        C  0.35255421  0.38799390  0.64182602     0.03790
C351        C  0.32559222  0.39135358  0.61235245    -0.10290
H352        H  0.22818138  0.29230303  0.62810450     0.09390
H353        H  0.35390920  0.34483785  0.68426252     0.06920
H354        H  0.33985523  0.42055041  0.59397635     0.06770
C355        C  0.23852854  0.04081759  0.93326321     0.03800
C356        C  0.23997018  0.50074593  0.93908258    -0.12350
C357        C  0.21418480  0.47070502  0.97034532     0.01300
C358        C  0.19659615  0.48600052  0.99793380    -0.10870
C359        C  0.19015568  0.02095656  0.98987854     0.03790
C360        C  0.21111506  0.04848065  0.95812260    -0.10290
H361        H  0.25883453  0.49253047  0.91908871     0.09390
H362        H  0.18014268  0.46606102  0.02355391     0.06920
H363        H  0.20590010  0.07579842  0.95302164     0.06770
C364        C  0.02126081  0.12030395  0.61369561     0.03800
C365        C  0.98290564  0.12286058  0.61661863    -0.12350
C366        C  0.98512422  0.16324603  0.61447278     0.01300
C367        C  0.01802804  0.19615939  0.59136872    -0.10870
C368        C  0.05643881  0.19518686  0.58110724     0.03790
C369        C  0.05957762  0.15767952  0.59468853    -0.10290
H370        H  0.95431883  0.09605419  0.63083855     0.09390
H371        H  0.01570266  0.22509884  0.58566508     0.06920
H372        H  0.09068104  0.15813789  0.59118021     0.06770
C373        C  0.13339239  0.42017824  0.60183644     0.03800
C374        C  0.17302084  0.45002693  0.61962359    -0.12350
C375        C  0.17895138  0.48912089  0.63361597     0.01300
C376        C  0.14313803  0.49599855  0.63689733    -0.10870
C377        C  0.09953973  0.46203004  0.63079034     0.03790
C378        C  0.09425480  0.42298189  0.61156310    -0.10290
H379        H  0.20145185  0.44544730  0.61877839     0.09390
H380        H  0.14953338  0.52779907  0.64715407     0.06920
H381        H  0.06131539  0.39604994  0.60450312     0.06770
O382        O  0.08342826  0.26652048  0.54892815    -0.84680
O383        O  0.10648743  0.35730894  0.55775465    -0.81720
C384        C  0.13931982  0.39192895  0.57189657     0.98790
O385        O  0.17979105  0.40399978  0.56003339    -0.81760
O386        O  0.24871113  0.38395233  0.56185107    -0.84400
C387        C  0.24992113  0.35064459  0.57348580     1.03310
O388        O  0.22220273  0.31196949  0.55899524    -0.77160
O389        O  0.13033207  0.24207399  0.55240430    -0.77350
C390        C  0.09204482  0.23640074  0.55994083     1.03260
O391        O  0.07626923  0.31072690  0.48398700    -0.84670
O392        O  0.16454077  0.39122197  0.48734169    -0.81740
C393        C  0.20635328  0.42568553  0.98116618     0.98810
O394        O  0.23975574  0.42529608  0.49479499    -0.81760
O395        O  0.22885695  0.34028709  0.48625767    -0.84370
C396        C  0.22455478  0.30186603  0.97582436     1.03280
O397        O  0.19151310  0.26511801  0.48815347    -0.77190
O398        O  0.11375093  0.27349509  0.48019501    -0.77340
C399        C  0.07942444  0.27848547  0.97070271     1.03240
Cr400      Cr  0.12326500  0.32627274  0.51852789     1.93740
Cr401      Cr  0.20283421  0.37301814  0.52322955     1.93210
Cr402      Cr  0.17071508  0.29443101  0.51981145     1.39100
O403        O  0.16298073  0.32899858  0.54402614    -1.22420
C404        C  0.46212272  0.19916085  0.92244211     0.03800
C405        C  0.45672963  0.16036322  0.93762387    -0.12350
C406        C  0.98972676  0.16081504  0.95901840     0.01300
C407        C  0.03036395  0.19894362  0.96510339    -0.10870
C408        C  0.03824593  0.23994285  0.95282390     0.03790
C409        C  0.00291884  0.24044085  0.93154356    -0.10290
H410        H  0.42614247  0.12875344  0.93340306     0.09390
H411        H  0.05468070  0.19634013  0.98225521     0.06920
H412        H  0.00719497  0.27167382  0.92214979     0.06770
C413        C  0.19115330  0.07021969  0.80094510     0.03800
C414        C  0.17609076  0.02822565  0.81719044    -0.12350
C415        C  0.13185999  0.99230174  0.81180159     0.01300
C416        C  0.10112157  0.00039058  0.79386531    -0.10870
C417        C  0.11544658  0.03756357  0.77062923     0.03790
C418        C  0.16023627  0.07458217  0.77656338    -0.10290
H419        H  0.19961117  0.02336067  0.83325533     0.09390
H420        H  0.06640467  0.97442690  0.79288517     0.06920
H421        H  0.17091105  0.10567710  0.76200187     0.06770
C422        C  0.42843150  0.12816401  0.79390298     0.03800
C423        C  0.47241326  0.16364676  0.79741281    -0.12350
C424        C  0.50890056  0.15780137  0.79083267     0.01300
C425        C  0.50264646  0.11604024  0.78401854    -0.10870
C426        C  0.46210614  0.08310091  0.76966625     0.03790
C427        C  0.42350405  0.08729523  0.77838016    -0.10290
H428        H  0.47862071  0.19640407  0.80396148     0.09390
H429        H  0.53222892  0.11372646  0.77938137     0.06920
H430        H  0.39055203  0.05966314  0.77227977     0.06770
O431        O  0.25321734  0.10386941  0.89253045    -0.84680
O432        O  0.27436528  0.19429323  0.89634404    -0.81720
C433        C  0.30788623  0.23167422  0.90465236     0.98790
O434        O  0.34750590  0.24187129  0.89209162    -0.81760
O435        O  0.41844875  0.22433641  0.88962789    -0.84400
C436        C  0.42324312  0.19225679  0.89832935     1.03310
O437        O  0.39374285  0.15268035  0.88644698    -0.77250
O438        O  0.30212694  0.08155155  0.89061367    -0.77350
C439        C  0.26545824  0.07639783  0.90342959     1.03260
O440        O  0.23608796  0.14221267  0.82796929    -0.84670
O441        O  0.32270484  0.22580628  0.82464754    -0.81740
C442        C  0.36324122  0.26175130  0.81739614     0.98810
O443        O  0.39884348  0.26100874  0.82440599    -0.81760
O444        O  0.39586165  0.17447400  0.81760864    -0.84370
C445        C  0.39015652  0.13432425  0.80963841     1.03280
O446        O  0.35419925  0.09929658  0.82084534    -0.77190
O447        O  0.27133280  0.10322633  0.82105311    -0.77340
C448        C  0.23609462  0.10819543  0.81505686     1.03240
Cr449      Cr  0.28755548  0.16115344  0.85741916     1.93740
Cr450      Cr  0.36849694  0.20909273  0.85448408     1.93210
Cr451      Cr  0.33587360  0.13035760  0.85323307     1.39100
O452        O  0.33108132  0.16627325  0.87830339    -1.22420
O453        O  0.42970972  0.41401787  0.66270118    -0.84680
O454        O  0.02588681  0.43859427  0.65917692    -0.81720
C455        C  0.06403215  0.97063594  0.64812549     0.98790
O456        O  0.07430472  0.01099224  0.65585175    -0.81760
O457        O  0.05139378  0.08054991  0.64969836    -0.84400
C458        C  0.01754656  0.08205918  0.63864096     1.03310
O459        O  0.47841083  0.05269674  0.65298670    -0.77160
O460        O  0.40728307  0.46226057  0.66049542    -0.77350
C461        C  0.39955611  0.42365290  0.65364306     1.03260
O462        O  0.47143593  0.40546978  0.72734499    -0.84670
O463        O  0.04800720  0.49278252  0.73058277    -0.81740
C464        C  0.08334787  0.53273924  0.73883298     0.98810
O465        O  0.09120603  0.06705883  0.71931816    -0.81760
O466        O  0.00423843  0.05664816  0.72864903    -0.84370
C467        C  0.96479940  0.05152673  0.74020393     1.03280
O468        O  0.42907250  0.02207574  0.72428569    -0.77190
O469        O  0.43949387  0.44742420  0.73469239    -0.77340
C470        C  0.44423429  0.41359466  0.74528748     1.03240
Cr471      Cr  0.48858484  0.45299695  0.69383125     1.93740
Cr472      Cr  0.03957505  0.03318802  0.68941893     1.93210
Cr473      Cr  0.45991099  0.50200752  0.69237355     1.39100
O474        O  0.99527391  0.49425424  0.66819436    -1.22420
C475        C  0.34845461  0.25161998  0.64591138    -0.04660
C476        C  0.33868274  0.25784780  0.68516081    -0.01780
C477        C  0.30130926  0.26159904  0.69378657     0.03210
C478        C  0.27872821  0.26718538  0.66362520    -0.04660
C479        C  0.27847773  0.24665152  0.62878884    -0.01770
C480        C  0.31765195  0.24762286  0.61717289     0.03200
C481        C  0.36479572  0.25861170  0.71713110     0.37850
C482        C  0.23941540  0.22744303  0.60463385     0.37840
C483        C  0.32489514  0.24222877  0.57646039     0.36270
C484        C  0.28629605  0.26009256  0.73322644     0.36270
N485        N  0.33103871  0.23707711  0.54428101    -0.38550
N486        N  0.27488320  0.25632200  0.76534111    -0.38550
N487        N  0.20806695  0.21186506  0.58544615    -0.38000
N488        N  0.38598430  0.25659283  0.74140382    -0.38000
C489        C  0.42257778  0.18639682  0.71009702    -0.04660
C490        C  0.40966835  0.14276106  0.69965191    -0.01780
C491        C  0.42175689  0.13919610  0.66169450     0.03210
C492        C  0.46323546  0.17394912  0.64639406    -0.04660
C493        C  0.48824114  0.21291762  0.66974227    -0.01770
C494        C  0.46810316  0.21681009  0.70422730     0.03200
C495        C  0.37115673  0.10458265  0.71774923     0.37850
C496        C  0.03268887  0.24903715  0.65909296     0.37840
C497        C  0.48998645  0.25523155  0.72886254     0.36270
C498        C  0.38973834  0.10274400  0.63813484     0.36270
N499        N  0.50740902  0.28578559  0.74880133    -0.38550
N500        N  0.36384381  0.07302284  0.62022324    -0.38550
N501        N  0.06776452  0.27874635  0.65073229    -0.38000
N502        N  0.33927523  0.07392831  0.73055578    -0.38000
C503        C  0.28902968  0.11565978  0.64411662    -0.04660
C504        C  0.28707461  0.09036890  0.61137797    -0.01780
C505        C  0.25523957  0.04530843  0.61078878     0.03210
C506        C  0.22350542  0.02648849  0.64121647    -0.04660
C507        C  0.22761833  0.05067413  0.67457165    -0.01770
C508        C  0.25650863  0.09609986  0.67420652     0.03200
C509        C  0.31514642  0.10963229  0.57697098     0.37850
C510        C  0.20025886  0.02778668  0.70817090     0.37840
C511        C  0.25123744  0.12308727  0.70323141     0.36270
C512        C  0.25751911  0.01834130  0.58010026     0.36270
N513        N  0.24840469  0.14590523  0.72577149    -0.38550
N514        N  0.26239923  0.49697880  0.55732130    -0.38550
N515        N  0.17759967  0.00668959  0.73375605    -0.38000
N516        N  0.33538940  0.12398007  0.54832699    -0.38000
C517        C  0.26398537  0.36870892  0.75662715    -0.04660
C518        C  0.24994786  0.33404864  0.78496110    -0.01780
C519        C  0.27291797  0.34256621  0.81956930     0.03210
C520        C  0.31666779  0.37806286  0.82144440    -0.04660
C521        C  0.32511911  0.41568132  0.79963724    -0.01770
C522        C  0.30331539  0.40979840  0.76420748     0.03200
C523        C  0.21472854  0.28835890  0.77967415     0.37850
C524        C  0.35515117  0.45964695  0.81434235     0.37840
C525        C  0.32128466  0.44545262  0.73581655     0.36270
C526        C  0.24950520  0.31690951  0.85364212     0.36270
N527        N  0.33454761  0.47323073  0.71255135    -0.38550
N528        N  0.22644133  0.29532526  0.87894127    -0.38550
N529        N  0.37909974  0.49462559  0.82641463    -0.38000
N530        N  0.18876459  0.25086838  0.77699893    -0.38000
C531        C  0.12110122  0.44528774  0.81366630    -0.04660
C532        C  0.09582252  0.41851813  0.78296473    -0.01780
C533        C  0.11692977  0.40819934  0.75352817     0.03210
C534        C  0.15885845  0.41207206  0.76086634    -0.04660
C535        C  0.17726629  0.42663473  0.79850342    -0.01770
C536        C  0.15509689  0.43880879  0.82553928     0.03200
C537        C  0.04771004  0.39653455  0.78538803     0.37850
C538        C  0.21702989  0.42776504  0.81154858     0.37840
C539        C  0.16070009  0.43664154  0.86640628     0.36270
C540        C  0.09409039  0.39183485  0.71712783     0.36270
N541        N  0.16298055  0.93153839  0.89890633    -0.38550
N542        N  0.07485448  0.37736223  0.68875571    -0.38550
N543        N  0.24846437  0.42946028  0.82389833    -0.38000
N544        N  0.00918339  0.37832063  0.78858511    -0.38000
C545        C  0.05113546  0.19537119  0.77574482    -0.04660
C546        C  0.07885147  0.23055166  0.79950882    -0.01780
C547        C  0.11423890  0.26903560  0.78256454     0.03210
C548        C  0.12417555  0.27019550  0.74204192    -0.04660
C549        C  0.10098438  0.23216189  0.71996640    -0.01770
C550        C  0.06249849  0.19622854  0.73603938     0.03200
C551        C  0.07111832  0.22680706  0.84107077     0.37850
C552        C  0.11596234  0.23082525  0.68077071     0.37840
C553        C  0.53139485  0.16209515  0.71128368     0.36270
C554        C  0.14068908  0.30632217  0.80755832     0.36270
N555        N  0.50281411  0.13333619  0.69485734    -0.38550
N556        N  0.16071729  0.33407276  0.82961604    -0.38550
N557        N  0.12915894  0.23031195  0.64988304    -0.38000
N558        N  0.06569546  0.22349610  0.87431400    -0.38000
C559        C  0.44436365  0.40698698  0.03273663    -0.04660
C560        C  0.40459725  0.37026841  0.54496189    -0.01780
C561        C  0.36967197  0.35048830  0.51899668     0.03210
C562        C  0.37809381  0.36333833  0.97933739    -0.04660
C563        C  0.42168262  0.39222130  0.96558540    -0.01770
C564        C  0.45536909  0.41384266  0.99251059     0.03200
C565        C  0.40204499  0.35336085  0.58343752     0.37850
C566        C  0.43105998  0.40107639  0.92427049     0.37840
C567        C  0.49996592  0.44537214  0.97865857     0.36270
C568        C  0.32508168  0.31860864  0.53273549     0.36270
N569        N  0.53519499  0.46958933  0.96568847    -0.38550
N570        N  0.28856762  0.29309117  0.54186730    -0.38550
N571        N  0.43822965  0.40780976  0.89132973    -0.38000
N572        N  0.40355174  0.34065157  0.61385234    -0.38000
C573        C  0.97588900  0.04690360  0.00990967    -0.04660
C574        C  0.95361345  0.06628587  0.52750744    -0.01780
C575        C  0.95763915  0.10407578  0.51060293     0.03210
C576        C  0.98152901  0.11978669  0.97525966    -0.04660
C577        C  0.49594633  0.09542979  0.95423685    -0.01770
C578        C  0.49175677  0.05773975  0.97116704     0.03200
C579        C  0.92503110  0.04537156  0.56132370     0.37850
C580        C  0.51398486  0.10867348  0.91490193     0.37840
C581        C  0.49599378  0.02757689  0.94575153     0.36270
C582        C  0.93909894  0.12783167  0.52960916     0.36270
N583        N  0.49774936  0.00630208  0.92100279    -0.38550
N584        N  0.92550650  0.14817294  0.54427175    -0.38550
N585        N  0.52799736  0.11887319  0.88353418    -0.38000
N586        N  0.90191806  0.02608750  0.58753094    -0.38000
C587        C  0.07937446  0.00364248  0.05702181    -0.04660
C588        C  0.07898404  0.46854155  0.03602860    -0.01780
C589        C  0.11228341  0.47874047  0.00856975     0.03210
C590        C  0.15224187  0.01925346  0.00991229    -0.04660
C591        C  0.15760285  0.05182254  0.03644285    -0.01770
C592        C  0.12033384  0.04480517  0.55888863     0.03200
C593        C  0.04381064  0.42208008  0.03932731     0.37850
C594        C  0.20065258  0.09244755  0.53982135     0.37840
C595        C  0.12458983  0.07944537  0.58425736     0.36270
C596        C  0.10416727  0.44674964  0.97805910     0.36270
N597        N  0.12961072  0.10785615  0.60439378    -0.38550
N598        N  0.09598644  0.42064970  0.95423879    -0.38550
N599        N  0.23491858  0.12499045  0.54247355    -0.38000
N600        N  0.01720248  0.38459478  0.04093076    -0.38000
C601        C  0.98564255  0.51845658  0.03327015     0.03800
C602        C  0.02916897  0.53122840  0.54400099    -0.12350
C603        C  0.03669907  0.50128893  0.56464929     0.01300
C604        C  0.49919535  0.96114285  0.57702360    -0.10870
C605        C  0.45964523  0.94602020  0.05755202     0.03790
C606        C  0.44960559  0.97630845  0.04291566    -0.10290
H607        H  0.05699038  0.56213065  0.53278295     0.09390
H608        H  0.50376765  0.93671102  0.59133701     0.06920
H609        H  0.41720426  0.96460308  0.03007002     0.06770
C610        C  0.17422755  0.88751532  0.23567751     0.03800
C611        C  0.14188710  0.84373111  0.22784540    -0.12350
C612        C  0.15409334  0.81260298  0.22238837     0.01300
C613        C  0.19866080  0.82588338  0.21476089    -0.10870
C614        C  0.23114261  0.86719191  0.22872634     0.03790
C615        C  0.21947011  0.90007400  0.23249087    -0.10290
H616        H  0.10711025  0.83106912  0.23578370     0.09390
H617        H  0.20721899  0.80077140  0.20982002     0.06920
H618        H  0.24383856  0.93313458  0.24144902     0.06770
C619        C  0.39310225  0.69938239  0.19072475     0.03800
C620        C  0.34778351  0.66720130  0.18866668    -0.12350
C621        C  0.32885691  0.65818354  0.15194898     0.01300
C622        C  0.35121153  0.69015350  0.12317129    -0.10870
C623        C  0.37827334  0.73328930  0.13631538     0.03790
C624        C  0.40882889  0.73546809  0.16380187    -0.10290
H625        H  0.33173993  0.64431985  0.21249616     0.09390
H626        H  0.33744367  0.68430510  0.09491501     0.06920
H627        H  0.44210681  0.76449223  0.16503445     0.06770
C628        C  0.30247452  0.76571883  0.42611198     0.03800
C629        C  0.34238657  0.80409271  0.43443581    -0.12350
C630        C  0.34263869  0.83909931  0.45240228     0.01300
C631        C  0.30396988  0.84055081  0.45710179    -0.10870
C632        C  0.26250148  0.80160447  0.45434921     0.03790
C633        C  0.26145533  0.76312099  0.43835957    -0.10290
H634        H  0.37403222  0.80543065  0.43078892     0.09390
H635        H  0.30678807  0.86926519  0.47144992     0.06920
H636        H  0.22978966  0.73239097  0.43539001     0.06770
C637        C  0.36977815  0.80682388  0.30631937     0.03800
C638        C  0.40660101  0.83853709  0.28250376    -0.12350
C639        C  0.41564671  0.88249172  0.27740954     0.01300
C640        C  0.39308423  0.89626487  0.30100237    -0.10870
C641        C  0.35215507  0.86558116  0.31875961     0.03790
C642        C  0.34205339  0.82101383  0.32327232    -0.10290
H643        H  0.42805150  0.82943193  0.26765447     0.09390
H644        H  0.40440876  0.93097685  0.29994142     0.06920
H645        H  0.31237724  0.79709517  0.33932494     0.06770
C646        C  0.28042294  0.85527235  0.10601250     0.03800
C647        C  0.26245503  0.81924562  0.13138887    -0.12350
C648        C  0.28951346  0.81326863  0.15662958     0.01300
C649        C  0.33323218  0.84875582  0.16339099    -0.10870
C650        C  0.35254614  0.88806168  0.14176690     0.03790
C651        C  0.32559879  0.89144867  0.11228905    -0.10290
H652        H  0.22819942  0.79235882  0.12794471     0.09390
H653        H  0.35388096  0.84486323  0.18416906     0.06920
H654        H  0.33986907  0.92066739  0.09394020     0.06770
C655        C  0.23866580  0.54082698  0.43335704     0.03800
C656        C  0.23989471  0.00077893  0.43906568    -0.12350
C657        C  0.21372588  0.97051750  0.47008136     0.01300
C658        C  0.19541888  0.98543745  0.49732845    -0.10870
C659        C  0.19097678  0.52130957  0.49040697     0.03790
C660        C  0.21152314  0.54862742  0.45844288    -0.10290
H661        H  0.25911662  0.99276285  0.41931155     0.09390
H662        H  0.17862081  0.96531803  0.52278577     0.06920
H663        H  0.20619924  0.57587740  0.45335331     0.06770
C664        C  0.02133384  0.62020443  0.11356848     0.03800
C665        C  0.98289235  0.62263071  0.11631357    -0.12350
C666        C  0.98498384  0.66294986  0.11405742     0.01300
C667        C  0.01788004  0.69586391  0.09095938    -0.10870
C668        C  0.05645132  0.69507521  0.08094849     0.03790
C669        C  0.05967428  0.65765067  0.09464795    -0.10290
H670        H  0.95429406  0.59578655  0.13047646     0.09390
H671        H  0.01544677  0.72472412  0.08515889     0.06920
H672        H  0.09085233  0.65822322  0.09130049     0.06770
C673        C  0.13340823  0.92040631  0.10155833     0.03800
C674        C  0.17310531  0.95048549  0.11913442    -0.12350
C675        C  0.17894957  0.98959277  0.13299494     0.01300
C676        C  0.14306109  0.99632869  0.13634365    -0.10870
C677        C  0.09947438  0.96220805  0.13048579     0.03790
C678        C  0.09422811  0.92312655  0.11134166    -0.10290
H679        H  0.20162599  0.94604732  0.11824715     0.09390
H680        H  0.14941568  0.02814707  0.14650851     0.06920
H681        H  0.06128905  0.89609967  0.10440539     0.06770
O682        O  0.08342735  0.76648486  0.04891302    -0.84680
O683        O  0.10645706  0.85731223  0.05771129    -0.81720
C684        C  0.13930070  0.89200608  0.07175310     0.98790
O685        O  0.17975827  0.90406391  0.05986013    -0.81760
O686        O  0.24871642  0.88404632  0.06172337    -0.84400
C687        C  0.24993905  0.85074390  0.07337031     1.03310
O688        O  0.22222803  0.81206105  0.05888342    -0.77160
O689        O  0.13037782  0.74209542  0.05233094    -0.77350
C690        C  0.09207241  0.73637035  0.05987686     1.03260
O691        O  0.07613878  0.81063643  0.98400522    -0.84670
O692        O  0.16436668  0.89110399  0.98723989    -0.81740
C693        C  0.20611715  0.92560791  0.48099899     0.98810
O694        O  0.23961976  0.92532579  0.99459126    -0.81760
O695        O  0.22889573  0.84032164  0.98616818    -0.84370
C696        C  0.22460456  0.80188834  0.47577431     1.03280
O697        O  0.19150231  0.76515414  0.98806157    -0.77190
O698        O  0.11369336  0.77348146  0.98013408    -0.77340
C699        C  0.07933152  0.77842418  0.47067489     1.03240
Cr700      Cr  0.12319020  0.82622353  0.01849007     1.93740
Cr701      Cr  0.20280702  0.87305084  0.02309777     1.93210
Cr702      Cr  0.17070614  0.79446692  0.01971977     1.39100
O703        O  0.16297407  0.82902947  0.04394017    -1.22420
C704        C  0.46206556  0.69908491  0.42233404     0.03800
C705        C  0.45673190  0.66027263  0.43742416    -0.12350
C706        C  0.98975365  0.66073235  0.45878195     0.01300
C707        C  0.03035071  0.69888871  0.46493727    -0.10870
C708        C  0.03817430  0.73989074  0.45275337     0.03790
C709        C  0.00282029  0.74037701  0.43150401    -0.10290
H710        H  0.42618612  0.62864418  0.43314708     0.09390
H711        H  0.05468956  0.69629146  0.48206286     0.06920
H712        H  0.00704825  0.77161094  0.42217782     0.06770
C713        C  0.19101539  0.57009611  0.30106356     0.03800
C714        C  0.17591158  0.52814674  0.31742917    -0.12350
C715        C  0.13169467  0.49220736  0.31201718     0.01300
C716        C  0.10098828  0.50027964  0.29397878    -0.10870
C717        C  0.11534739  0.53744257  0.27071243     0.03790
C718        C  0.16013058  0.57444348  0.27663858    -0.10290
H719        H  0.19941010  0.52331296  0.33356271     0.09390
H720        H  0.06627268  0.47432740  0.29296799     0.06920
H721        H  0.17081966  0.60551974  0.26203878     0.06770
C722        C  0.42835005  0.62813213  0.29373143     0.03800
C723        C  0.47232025  0.66365623  0.29718893    -0.12350
C724        C  0.50883109  0.65784987  0.29060820     0.01300
C725        C  0.50262070  0.61610442  0.28381852    -0.10870
C726        C  0.46208340  0.58311916  0.26950808     0.03790
C727        C  0.42345598  0.58726679  0.27823836    -0.10290
H728        H  0.47849892  0.69640732  0.30371815     0.09390
H729        H  0.53222113  0.61382028  0.27918612     0.06920
H730        H  0.39050995  0.55959939  0.27218263     0.06770
O731        O  0.25317614  0.60377346  0.39253069    -0.84680
O732        O  0.27427333  0.69415434  0.39630240    -0.81720
C733        C  0.30779323  0.73152580  0.40460805     0.98790
O734        O  0.34740765  0.74174071  0.39201434    -0.81760
O735        O  0.41837119  0.72424928  0.38953483    -0.84400
C736        C  0.42318055  0.69217654  0.39822580     1.03310
O737        O  0.39369558  0.65260251  0.38632799    -0.77250
O738        O  0.30209700  0.58146854  0.39054018    -0.77350
C739        C  0.26545219  0.57632314  0.40341687     1.03260
O740        O  0.23599686  0.64211084  0.32797511    -0.84670
O741        O  0.32261500  0.72571804  0.32458548    -0.81740
C742        C  0.36315730  0.76166313  0.31732292     0.98810
O743        O  0.39875246  0.76090709  0.32431984    -0.81760
O744        O  0.39576436  0.67439465  0.31749583    -0.84370
C745        C  0.39006655  0.63425481  0.30950437     1.03280
O746        O  0.35412440  0.59921761  0.32072593    -0.77190
O747        O  0.27122498  0.60310656  0.32103724    -0.77340
C748        C  0.23598111  0.60807622  0.31508660     1.03240
Cr749      Cr  0.28748036  0.66104911  0.35737544     1.93740
Cr750      Cr  0.36840952  0.70899226  0.35439657     1.93210
Cr751      Cr  0.33580290  0.63026448  0.35314783     1.39100
O752        O  0.33102052  0.66617563  0.37823108    -1.22420
O753        O  0.42969390  0.91407683  0.16268089    -0.84680
O754        O  0.02588534  0.93867202  0.15911243    -0.81720
C755        C  0.06408318  0.47052493  0.14825398     0.98790
O756        O  0.07437524  0.51089496  0.15594684    -0.81760
O757        O  0.05146020  0.58049016  0.14967617    -0.84400
C758        C  0.01762211  0.58199786  0.13858169     1.03310
O759        O  0.47847621  0.55264034  0.15291218    -0.77160
O760        O  0.40724639  0.96230587  0.16052580    -0.77350
C761        C  0.39953599  0.92371204  0.15363136     1.03260
O762        O  0.47144092  0.90549269  0.22729798    -0.84670
O763        O  0.04804476  0.99284862  0.23053459    -0.81740
C764        C  0.08339243  0.03281710  0.23876606     0.98810
O765        O  0.09118924  0.56697998  0.21937273    -0.81760
O766        O  0.00423872  0.55663272  0.22857410    -0.84370
C767        C  0.96479333  0.55152019  0.24009238     1.03280
O768        O  0.42907456  0.52204717  0.22418001    -0.77190
O769        O  0.43947688  0.94741713  0.23469796    -0.77340
C770        C  0.44422848  0.91358477  0.24526337     1.03240
Cr771      Cr  0.48858294  0.95304523  0.19380859     1.93740
Cr772      Cr  0.03959910  0.53312888  0.18942376     1.93210
Cr773      Cr  0.45987793  0.00203362  0.19240903     1.39100
O774        O  0.99523508  0.99430431  0.16819864    -1.22420
C775        C  0.34828901  0.75144091  0.14580582    -0.04660
C776        C  0.33858787  0.75776308  0.18504477    -0.01780
C777        C  0.30128607  0.76163282  0.19366724     0.03210
C778        C  0.27871299  0.76722804  0.16350260    -0.04660
C779        C  0.27841203  0.74665512  0.12867557    -0.01770
C780        C  0.31753147  0.74751665  0.11706334     0.03200
C781        C  0.36471435  0.75851952  0.21700468     0.37850
C782        C  0.23929152  0.72737361  0.10459079     0.37840
C783        C  0.32473771  0.74200527  0.07636776     0.36270
C784        C  0.28633361  0.76023544  0.23310828     0.36270
N785        N  0.33085216  0.73675969  0.04420612    -0.38550
N786        N  0.27495926  0.75654937  0.26522704    -0.38550
N787        N  0.20789460  0.71173751  0.08546075    -0.38000
N788        N  0.38591374  0.75651846  0.24127785    -0.38000
C789        C  0.42259089  0.68616849  0.20978042    -0.04660
C790        C  0.40960545  0.64252907  0.19926356    -0.01780
C791        C  0.42164409  0.63895185  0.16129449     0.03210
C792        C  0.46311034  0.67368562  0.14596491    -0.04660
C793        C  0.48815160  0.71267532  0.16928621    -0.01770
C794        C  0.46808985  0.71659702  0.20380424     0.03200
C795        C  0.37113768  0.60434543  0.21740296     0.37850
C796        C  0.03260578  0.74877687  0.15861769     0.37840
C797        C  0.49001894  0.75506348  0.22838857     0.36270
C798        C  0.38969693  0.60235631  0.13781740     0.36270
N799        N  0.50748136  0.78565609  0.24828101    -0.38550
N800        N  0.36392457  0.57249594  0.11996354    -0.38550
N801        N  0.06768999  0.77847096  0.15025461    -0.38000
N802        N  0.33928643  0.57368945  0.23024634    -0.38000
C803        C  0.28882911  0.61517573  0.14457587    -0.04660
C804        C  0.28695631  0.58981551  0.11192047    -0.01780
C805        C  0.25531692  0.54470098  0.11148452     0.03210
C806        C  0.22356777  0.52591430  0.14190510    -0.04660
C807        C  0.22765171  0.55017617  0.17519894    -0.01770
C808        C  0.25642200  0.59562165  0.17473511     0.03200
C809        C  0.31486577  0.60906877  0.07742578     0.37850
C810        C  0.20028030  0.52734573  0.20878664     0.37840
C811        C  0.25112301  0.62265604  0.20368793     0.36270
C812        C  0.25783105  0.51767176  0.08097994     0.36270
N813        N  0.24832439  0.64558163  0.22612777    -0.38550
N814        N  0.26198284  0.99764992  0.05635294    -0.38550
N815        N  0.17757465  0.50626842  0.23435033    -0.38000
N816        N  0.33498378  0.62343317  0.04872998    -0.38000
C817        C  0.26423873  0.86872114  0.25686684    -0.04660
C818        C  0.25014938  0.83413290  0.28528215    -0.01780
C819        C  0.27310251  0.84273651  0.31990369     0.03210
C820        C  0.31687225  0.87819300  0.32173294    -0.04660
C821        C  0.32531109  0.91578330  0.29989489    -0.01770
C822        C  0.30356429  0.90983150  0.26442236     0.03200
C823        C  0.21483658  0.78845767  0.28011775     0.37850
C824        C  0.35535985  0.95976504  0.31455545     0.37840
C825        C  0.32154037  0.94544026  0.23598809     0.36270
C826        C  0.24955618  0.81742849  0.35407630     0.36270
N827        N  0.33476502  0.97316966  0.21267987    -0.38550
N828        N  0.22634561  0.79616639  0.37943685    -0.38550
N829        N  0.37932259  0.99475651  0.32659616    -0.38000
N830        N  0.18879968  0.75097429  0.27754448    -0.38000
C831        C  0.12125787  0.94536479  0.31333119    -0.04660
C832        C  0.09611852  0.91870763  0.28252508    -0.01780
C833        C  0.11732809  0.90839210  0.25318618     0.03210
C834        C  0.15917221  0.91216456  0.26069898    -0.04660
C835        C  0.17741111  0.92664169  0.29840403    -0.01770
C836        C  0.15515814  0.93882026  0.32534536     0.03200
C837        C  0.04799415  0.89667066  0.28481892     0.37850
C838        C  0.21709028  0.92770324  0.31159465     0.37840
C839        C  0.16060139  0.93668159  0.36624860     0.36270
C840        C  0.09461390  0.89202088  0.21673635     0.36270
N841        N  0.16324397  0.43150129  0.39900429    -0.38550
N842        N  0.07546186  0.87751038  0.18833538    -0.38550
N843        N  0.24845478  0.92934117  0.32404839    -0.38000
N844        N  0.00945308  0.87837496  0.28790570    -0.38000
C845        C  0.05107672  0.69543134  0.27556851    -0.04660
C846        C  0.07876395  0.73058336  0.29936977    -0.01780
C847        C  0.11424579  0.76904005  0.28248603     0.03210
C848        C  0.12431166  0.77020031  0.24199381    -0.04660
C849        C  0.10107746  0.73220799  0.21986952    -0.01770
C850        C  0.06251460  0.69629951  0.23588105     0.03200
C851        C  0.07091235  0.72684313  0.34091516     0.37850
C852        C  0.11609432  0.73089309  0.18068422     0.37840
C853        C  0.53144283  0.66217893  0.21108210     0.36270
C854        C  0.14064343  0.80630749  0.30751622     0.36270
N855        N  0.50289478  0.63342210  0.19462195    -0.38550
N856        N  0.16061456  0.83403697  0.32960633    -0.38550
N857        N  0.12931025  0.73039326  0.14980136    -0.38000
N858        N  0.06540475  0.72355506  0.37414952    -0.38000
C859        C  0.44417127  0.90710216  0.53312283    -0.04660
C860        C  0.40455920  0.87017388  0.04523975    -0.01780
C861        C  0.36968783  0.85026009  0.01925351     0.03210
C862        C  0.37820102  0.86289953  0.47965293    -0.04660
C863        C  0.42181118  0.89175210  0.46592259    -0.01770
C864        C  0.45531721  0.91399571  0.49289995     0.03200
C865        C  0.40207354  0.85326562  0.08370328     0.37850
C866        C  0.43132749  0.89995625  0.42455996     0.37840
C867        C  0.49966991  0.94638267  0.47907224     0.36270
C868        C  0.32507164  0.81845580  0.03297726     0.36270
N869        N  0.53464473  0.97150535  0.46612823    -0.38550
N870        N  0.28851269  0.79301512  0.04204389    -0.38550
N871        N  0.43855619  0.90606572  0.39156794    -0.38000
N872        N  0.40363755  0.84055786  0.11410261    -0.38000
C873        C  0.97692175  0.54728563  0.50972869    -0.04660
C874        C  0.95413136  0.56620584  0.02709507    -0.01780
C875        C  0.95775347  0.60379379  0.01015635     0.03210
C876        C  0.98167858  0.61970474  0.47491476    -0.04660
C877        C  0.49672506  0.59579279  0.45404011    -0.01770
C878        C  0.49322513  0.55846461  0.47110983     0.03200
C879        C  0.92544038  0.54509799  0.06082662     0.37850
C880        C  0.51487246  0.60922333  0.41475211     0.37840
C881        C  0.49931474  0.52921642  0.44598017     0.36270
C882        C  0.93883630  0.62722249  0.02914039     0.36270
N883        N  0.50264433  0.50879373  0.42128261    -0.38550
N884        N  0.92496748  0.64731745  0.04381571    -0.38550
N885        N  0.52896200  0.61954984  0.38341844    -0.38000
N886        N  0.90225119  0.52574262  0.08697512    -0.38000
C887        C  0.07981016  0.50354595  0.55728521    -0.04660
C888        C  0.07837857  0.96860528  0.53570933    -0.01780
C889        C  0.11140388  0.97878408  0.50797732     0.03210
C890        C  0.15295014  0.51933733  0.51047717    -0.04660
C891        C  0.15811723  0.55185660  0.53696968    -0.01770
C892        C  0.12077616  0.54469846  0.05936214     0.03200
C893        C  0.04333319  0.92212955  0.53923238     0.37850
C894        C  0.20110410  0.59259058  0.04044505     0.37840
C895        C  0.12486297  0.57928162  0.08471911     0.36270
C896        C  0.10297386  0.94689609  0.47728816     0.36270
N897        N  0.12977655  0.60767479  0.10482755    -0.38550
N898        N  0.09464404  0.92094138  0.45329700    -0.38550
N899        N  0.23527715  0.62523086  0.04312552    -0.38000
N900        N  0.01683502  0.88462288  0.54100942    -0.38000
C901        C  0.98556196  0.51842877  0.53329190     0.03800
C902        C  0.02923207  0.53123435  0.04400708    -0.12350
C903        C  0.03673116  0.50127015  0.06464607     0.01300
C904        C  0.49918814  0.96113696  0.07701472    -0.10870
C905        C  0.45964581  0.94602069  0.55757077     0.03790
C906        C  0.44959668  0.97630386  0.54293859    -0.10290
H907        H  0.05706728  0.56214402  0.03281627     0.09390
H908        H  0.50375253  0.93670279  0.09133348     0.06920
H909        H  0.41719047  0.96459339  0.53010091     0.06770
C910        C  0.17421103  0.88752651  0.73568013     0.03800
C911        C  0.14186984  0.84374321  0.72784491    -0.12350
C912        C  0.15407601  0.81261603  0.72238020     0.01300
C913        C  0.19864258  0.82589862  0.71474429    -0.10870
C914        C  0.23112560  0.86720367  0.72871474     0.03790
C915        C  0.21945374  0.90008551  0.73248809    -0.10290
H916        H  0.10709383  0.83107960  0.73578748     0.09390
H917        H  0.20720073  0.80078801  0.70979469     0.06920
H918        H  0.24382408  0.93314494  0.74144732     0.06770
C919        C  0.39310207  0.69939515  0.69073192     0.03800
C920        C  0.34778495  0.66720970  0.68866898    -0.12350
C921        C  0.32886241  0.65819190  0.65194958     0.01300
C922        C  0.35121891  0.69016500  0.62317423    -0.10870
C923        C  0.37827350  0.73330042  0.63632124     0.03790
C924        C  0.40882874  0.73548066  0.66380884    -0.10290
H925        H  0.33173979  0.64432781  0.71249766     0.09390
H926        H  0.33745985  0.68431820  0.59491494     0.06920
H927        H  0.44210501  0.76450684  0.66504396     0.06770
C928        C  0.30247438  0.76572597  0.92610776     0.03800
C929        C  0.34238490  0.80410896  0.93441785    -0.12350
C930        C  0.34263288  0.83911521  0.95238149     0.01300
C931        C  0.30396033  0.84055913  0.95708257    -0.10870
C932        C  0.26249503  0.80160673  0.95433936     0.03790
C933        C  0.26145427  0.76312216  0.93836012    -0.10290
H934        H  0.37403370  0.80545437  0.93076567     0.09390
H935        H  0.30677585  0.86927448  0.97142639     0.06920
H936        H  0.22979139  0.73238677  0.93540086     0.06770
C937        C  0.36977580  0.80682681  0.80632304     0.03800
C938        C  0.40660148  0.83854346  0.78251191    -0.12350
C939        C  0.41564393  0.88249691  0.77741743     0.01300
C940        C  0.39307342  0.89626503  0.80100566    -0.10870
C941        C  0.35214158  0.86557737  0.81875680     0.03790
C942        C  0.34204514  0.82101198  0.82327101    -0.10290
H943        H  0.42805625  0.82944153  0.76766583     0.09390
H944        H  0.40439492  0.93097610  0.79994454     0.06920
H945        H  0.31236853  0.79708991  0.83932037     0.06770
C946        C  0.28042378  0.85528293  0.60601926     0.03800
C947        C  0.26245535  0.81925591  0.63139542    -0.12350
C948        C  0.28951294  0.81327794  0.65663646     0.01300
C949        C  0.33323162  0.84876491  0.66339877    -0.10870
C950        C  0.35254616  0.88807188  0.64177588     0.03790
C951        C  0.32559960  0.89145930  0.61229711    -0.10290
H952        H  0.22819947  0.79236982  0.62795122     0.09390
H953        H  0.35387959  0.84487177  0.68417733     0.06920
H954        H  0.33987051  0.92067832  0.59394859     0.06770
C955        C  0.23867559  0.54083081  0.93336343     0.03800
C956        C  0.23989640  0.00078253  0.93907449    -0.12350
C957        C  0.21373104  0.97051997  0.97009056     0.01300
C958        C  0.19543100  0.98544086  0.99734336    -0.10870
C959        C  0.19105545  0.52134461  0.99045603     0.03790
C960        C  0.21155991  0.54864338  0.95847252    -0.10290
H961        H  0.25911558  0.99276699  0.91931653     0.09390
H962        H  0.17863769  0.96532173  0.02280172     0.06920
H963        H  0.20622528  0.57588701  0.95338615     0.06770
C964        C  0.02133454  0.62021216  0.61357822     0.03800
C965        C  0.98289938  0.62264837  0.61633620    -0.12350
C966        C  0.98499874  0.66297152  0.61408393     0.01300
C967        C  0.01789454  0.69588370  0.59098435    -0.10870
C968        C  0.05645635  0.69508412  0.58095932     0.03790
C969        C  0.05967380  0.65765411  0.59465176    -0.10290
H970        H  0.95430283  0.59580867  0.63050575     0.09390
H971        H  0.01546631  0.72474744  0.58518758     0.06920
H972        H  0.09084714  0.65821954  0.59129408     0.06770
C973        C  0.13340295  0.92040764  0.60155802     0.03800
C974        C  0.17309788  0.95047958  0.61914108    -0.12350
C975        C  0.17894420  0.98958528  0.63300875     0.01300
C976        C  0.14305906  0.99632644  0.63635564    -0.10870
C977        C  0.09947188  0.96221106  0.63049048     0.03790
C978        C  0.09422395  0.92313094  0.61134107    -0.10290
H979        H  0.20161668  0.94603835  0.61825370     0.09390
H980        H  0.14941601  0.02814413  0.64652498     0.06920
H981        H  0.06128460  0.89610753  0.60440097     0.06770
O982        O  0.08342949  0.76648812  0.54891502    -0.84680
O983        O  0.10645496  0.85731457  0.55770828    -0.81720
C984        C  0.13929734  0.89200966  0.57175007     0.98790
O985        O  0.17975558  0.90406887  0.55985715    -0.81760
O986        O  0.24871715  0.88405440  0.56172599    -0.84400
C987        C  0.24994051  0.85075302  0.57337529     1.03310
O988        O  0.22223064  0.81206929  0.55888903    -0.77160
O989        O  0.13038116  0.74210044  0.55233653    -0.77350
C990        C  0.09207560  0.73637536  0.55988192     1.03260
O991        O  0.07613971  0.81063290  0.48400306    -0.84670
O992        O  0.16436539  0.89110304  0.48723661    -0.81740
C993        C  0.20611927  0.92560799  0.98100307     0.98810
O994        O  0.23961877  0.92532884  0.49458887    -0.81760
O995        O  0.22890143  0.84032433  0.48617216    -0.84370
C996        C  0.22459873  0.80188679  0.97576768     1.03280
O997        O  0.19150712  0.76515682  0.48806869    -0.77190
O998        O  0.11369651  0.77347992  0.48013672    -0.77340
C999        C  0.07932899  0.77842783  0.97067449     1.03240
Cr1000     Cr  0.12319081  0.82622472  0.51848950     1.93740
Cr1001     Cr  0.20280815  0.87305487  0.52309778     1.93210
Cr1002     Cr  0.17070917  0.79447061  0.51972354     1.39100
O1003       O  0.16297535  0.82903393  0.54394104    -1.22420
C1004       C  0.46206201  0.69909079  0.92233571     0.03800
C1005       C  0.45673104  0.66027715  0.93741889    -0.12350
C1006       C  0.98975561  0.66073624  0.95876876     0.01300
C1007       C  0.03035098  0.69889372  0.96492746    -0.10870
C1008       C  0.03817107  0.73989647  0.95275177     0.03790
C1009       C  0.00281488  0.74038309  0.93150683    -0.10290
H1010       H  0.42618746  0.62864762  0.93313897     0.09390
H1011       H  0.05469259  0.69629522  0.98204784     0.06920
H1012       H  0.00704016  0.77161724  0.92218499     0.06770
C1013       C  0.19101878  0.57010381  0.80106529     0.03800
C1014       C  0.17591157  0.52815792  0.81743963    -0.12350
C1015       C  0.13169226  0.49222159  0.81203487     0.01300
C1016       C  0.10098939  0.50029378  0.79398795    -0.10870
C1017       C  0.11535173  0.53745164  0.77071439     0.03790
C1018       C  0.16013617  0.57445062  0.77663712    -0.10290
H1019       H  0.19940652  0.52332557  0.83358067     0.09390
H1020       H  0.06627217  0.47434523  0.79297944     0.06920
H1021       H  0.17082729  0.60552497  0.76203311     0.06770
C1022       C  0.42835346  0.62813638  0.79373938     0.03800
C1023       C  0.47232372  0.66366007  0.79719792    -0.12350
C1024       C  0.50883479  0.65785399  0.79061696     0.01300
C1025       C  0.50262382  0.61610785  0.78382689    -0.10870
C1026       C  0.46208587  0.58312206  0.76951667     0.03790
C1027       C  0.42345907  0.58727067  0.77824671    -0.10290
H1028       H  0.47850221  0.69641121  0.80372667     0.09390
H1029       H  0.53222406  0.61382363  0.77919349     0.06920
H1030       H  0.39051299  0.55960415  0.77218964     0.06770
O1031       O  0.25317428  0.60377414  0.89253481    -0.84680
O1032       O  0.27427371  0.69415771  0.89630679    -0.81720
C1033       C  0.30779364  0.73153021  0.90461014     0.98790
O1034       O  0.34740762  0.74174476  0.89201645    -0.81760
O1035       O  0.41836881  0.72425483  0.88953750    -0.84400
C1036       C  0.42317767  0.69218217  0.89822859     1.03310
O1037       O  0.39369360  0.65260802  0.88633047    -0.77250
O1038       O  0.30209656  0.58147120  0.89053847    -0.77350
C1039       C  0.26545199  0.57632390  0.90341780     1.03260
O1040       O  0.23599655  0.64211558  0.82797967    -0.84670
O1041       O  0.32261361  0.72572070  0.82458895    -0.81740
C1042       C  0.36315573  0.76166617  0.81732608     0.98810
O1043       O  0.39875130  0.76091061  0.82432226    -0.81760
O1044       O  0.39576653  0.67439987  0.81749947    -0.84370
C1045       C  0.39006910  0.63426009  0.80950868     1.03280
O1046       O  0.35412537  0.59922326  0.82072760    -0.77190
O1047       O  0.27122688  0.60311352  0.82103795    -0.77340
C1048       C  0.23598305  0.60808319  0.81508836     1.03240
Cr1049     Cr  0.28747906  0.66105174  0.85737946     1.93740
Cr1050     Cr  0.36840873  0.70899599  0.85439895     1.93210
Cr1051     Cr  0.33580294  0.63026972  0.85314913     1.39100
O1052       O  0.33101963  0.66617907  0.87823387    -1.22420
O1053       O  0.42969368  0.91408651  0.66269110    -0.84680
O1054       O  0.02588427  0.93867880  0.65911928    -0.81720
C1055       C  0.06408014  0.47052711  0.64825376     0.98790
O1056       O  0.07437182  0.51089732  0.65594549    -0.81760
O1057       O  0.05145908  0.58049216  0.64967888    -0.84400
C1058       C  0.01762123  0.58200146  0.63858666     1.03310
O1059       O  0.47847500  0.55264387  0.65291781    -0.77160
O1060       O  0.40724653  0.96231595  0.66053836    -0.77350
C1061       C  0.39953592  0.92372218  0.65364216     1.03260
O1062       O  0.47144112  0.90550072  0.72730780    -0.84670
O1063       O  0.04804608  0.99285611  0.73054334    -0.81740
C1064       C  0.08339442  0.03282426  0.73877491     0.98810
O1065       O  0.09119224  0.56698454  0.71937199    -0.81760
O1066       O  0.00424011  0.55663490  0.72857976    -0.84370
C1067       C  0.96479511  0.55152287  0.74009950     1.03280
O1068       O  0.42907420  0.52205005  0.72418731    -0.77190
O1069       O  0.43947782  0.94742564  0.73470887    -0.77340
C1070       C  0.44422848  0.91359244  0.74527337     1.03240
Cr1071     Cr  0.48858336  0.95305372  0.69381855     1.93740
Cr1072     Cr  0.03959923  0.53313143  0.68942651     1.93210
Cr1073     Cr  0.45987977  0.00204336  0.69242119     1.39100
O1074       O  0.99523650  0.99431312  0.66820808    -1.22420
C1075       C  0.34828222  0.75144456  0.64581287    -0.04660
C1076       C  0.33858470  0.75777091  0.68505170    -0.01780
C1077       C  0.30128358  0.76164119  0.69367561     0.03210
C1078       C  0.27870953  0.76723642  0.66351194    -0.04660
C1079       C  0.27840356  0.74665884  0.62868627    -0.01770
C1080       C  0.31752013  0.74751510  0.61707247     0.03200
C1081       C  0.36471430  0.75853127  0.71701030     0.37850
C1082       C  0.23928128  0.72737868  0.60460360     0.37840
C1083       C  0.32471933  0.74199636  0.57637704     0.36270
C1084       C  0.28632840  0.76023681  0.73311686     0.36270
N1085       N  0.33082736  0.73674532  0.54421515    -0.38550
N1086       N  0.27495138  0.75654376  0.76523539    -0.38550
N1087       N  0.20788356  0.71174458  0.58547462    -0.38000
N1088       N  0.38591741  0.75653344  0.74128165    -0.38000
C1089       C  0.42259197  0.68618910  0.70979767    -0.04660
C1090       C  0.40961380  0.64255034  0.69928566    -0.01780
C1091       C  0.42165581  0.63897405  0.66131786     0.03210
C1092       C  0.46312270  0.67370823  0.64599044    -0.04660
C1093       C  0.48815956  0.71269866  0.66931129    -0.01770
C1094       C  0.46809120  0.71662080  0.70382502     0.03200
C1095       C  0.37114477  0.60436498  0.71742201     0.37850
C1096       C  0.03261209  0.74880213  0.65864070     0.37840
C1097       C  0.49001449  0.75508851  0.72840819     0.36270
C1098       C  0.38970514  0.60238592  0.63783684     0.36270
N1099       N  0.50747241  0.78568222  0.74829978    -0.38550
N1100       N  0.36392375  0.57253172  0.61998271    -0.38550
N1101       N  0.06769510  0.77849772  0.65027694    -0.38000
N1102       N  0.33929243  0.57370724  0.73026186    -0.38000
C1103       C  0.28883453  0.61518399  0.64457364    -0.04660
C1104       C  0.28695619  0.58982974  0.61191141    -0.01780
C1105       C  0.25530460  0.54471867  0.61146436     0.03210
C1106       C  0.22355972  0.52592705  0.64188783    -0.04660
C1107       C  0.22764735  0.55018248  0.67518770    -0.01770
C1108       C  0.25642444  0.59562712  0.67473084     0.03200
C1109       C  0.31487696  0.60908521  0.57742262     0.37850
C1110       C  0.20027293  0.52734991  0.70877478     0.37840
C1111       C  0.25112683  0.62265876  0.70368760     0.36270
C1112       C  0.25779202  0.51769823  0.58093672     0.36270
N1113       N  0.24833044  0.64558283  0.72613060    -0.38550
N1114       N  0.26196239  0.99765060  0.55635216    -0.38550
N1115       N  0.17756730  0.50627762  0.73434095    -0.38000
N1116       N  0.33500618  0.62345001  0.54873172    -0.38000
C1117       C  0.26422096  0.86872526  0.75685234    -0.04660
C1118       C  0.25013149  0.83412961  0.78526011    -0.01780
C1119       C  0.27308386  0.84272302  0.81988154     0.03210
C1120       C  0.31685236  0.87818188  0.82171725    -0.04660
C1121       C  0.32529410  0.91577631  0.79988386    -0.01770
C1122       C  0.30354715  0.90983273  0.76441282     0.03200
C1123       C  0.21482241  0.78845490  0.78008455     0.37850
C1124       C  0.35534087  0.95975550  0.81455080     0.37840
C1125       C  0.32152652  0.94544700  0.73598369     0.36270
C1126       C  0.24954454  0.81738629  0.85404494     0.36270
N1127       N  0.33475663  0.97318188  0.71268024    -0.38550
N1128       N  0.22634174  0.79609789  0.87939877    -0.38550
N1129       N  0.37930209  0.99474495  0.82659616    -0.38000
N1130       N  0.18878845  0.75097181  0.77750213    -0.38000
C1131       C  0.12125053  0.94537041  0.81335136    -0.04660
C1132       C  0.09610441  0.91870948  0.78254965    -0.01780
C1133       C  0.11730961  0.90839649  0.75320465     0.03210
C1134       C  0.15915724  0.91217225  0.76070862    -0.04660
C1135       C  0.17740358  0.92665070  0.79841128    -0.01770
C1136       C  0.15515388  0.93882695  0.82535836     0.03200
C1137       C  0.04798053  0.89667444  0.78485002     0.37850
C1138       C  0.21708731  0.92771617  0.81159413     0.37840
C1139       C  0.16060184  0.93668359  0.86626004     0.36270
C1140       C  0.09459150  0.89203170  0.71675551     0.36270
N1141       N  0.16327376  0.43145378  0.89900722    -0.38550
N1142       N  0.07543766  0.87752861  0.68835401    -0.38550
N1143       N  0.24845563  0.92935722  0.82404221    -0.38000
N1144       N  0.00944011  0.87838202  0.78794254    -0.38000
C1145       C  0.05107942  0.69543881  0.77557258    -0.04660
C1146       C  0.07876472  0.73059610  0.79937008    -0.01780
C1147       C  0.11424158  0.76905378  0.78248250     0.03210
C1148       C  0.12430095  0.77021332  0.74198898    -0.04660
C1149       C  0.10107145  0.73221726  0.71986870    -0.01770
C1150       C  0.06251489  0.69630559  0.73588472     0.03200
C1151       C  0.07091594  0.72686181  0.84091557     0.37850
C1152       C  0.11608816  0.73090022  0.68068393     0.37840
C1153       C  0.53144412  0.66217966  0.71109158     0.36270
C1154       C  0.14064413  0.80632149  0.80751084     0.36270
N1155       N  0.50289399  0.63341923  0.69463674    -0.38550
N1156       N  0.16061990  0.83405011  0.82960037    -0.38550
N1157       N  0.12930516  0.73039910  0.64980187    -0.38000
N1158       N  0.06541225  0.72358177  0.87415037    -0.38000
C1159       C  0.44416881  0.90710000  0.03310525    -0.04660
C1160       C  0.40456563  0.87017224  0.54525915    -0.01780
C1161       C  0.36969485  0.85025323  0.51927358     0.03210
C1162       C  0.37819286  0.86291659  0.97963448    -0.04660
C1163       C  0.42180276  0.89177249  0.96590536    -0.01770
C1164       C  0.45531309  0.91399554  0.99288287     0.03200
C1165       C  0.40208045  0.85326864  0.58372464     0.37850
C1166       C  0.43131646  0.89999910  0.92454447     0.37840
C1167       C  0.49967474  0.94635812  0.97905746     0.36270
C1168       C  0.32507697  0.81845808  0.53299964     0.36270
N1169       N  0.53465881  0.97145582  0.96611538    -0.38550
N1170       N  0.28851572  0.79302523  0.54206615    -0.38550
N1171       N  0.43854432  0.90612919  0.89155405    -0.38000
N1172       N  0.40364364  0.84056340  0.61412538    -0.38000
C1173       C  0.97703725  0.54734051  0.00971367    -0.04660
C1174       C  0.95408356  0.56620714  0.52713044    -0.01780
C1175       C  0.95774407  0.60381340  0.51019199     0.03210
C1176       C  0.98169355  0.61970783  0.97488594    -0.04660
C1177       C  0.49681711  0.59585190  0.95402680    -0.01770
C1178       C  0.49340719  0.55857147  0.97111336     0.03200
C1179       C  0.92540475  0.54512024  0.56087131     0.37850
C1180       C  0.51497469  0.60930611  0.91474366     0.37840
C1181       C  0.49975713  0.52945760  0.94602495     0.36270
C1182       C  0.93885979  0.62727293  0.52917411     0.36270
N1183       N  0.50331344  0.50916310  0.92133608    -0.38550
N1184       N  0.92501325  0.64739011  0.54384408    -0.38550
N1185       N  0.52907060  0.61964751  0.88341333    -0.38000
N1186       N  0.90222497  0.52577057  0.58702612    -0.38000
C1187       C  0.07984529  0.50352932  0.05730258    -0.04660
C1188       C  0.07837751  0.96859867  0.03572146    -0.01780
C1189       C  0.11140960  0.97877399  0.00799717     0.03210
C1190       C  0.15301576  0.51934178  0.01052878    -0.04660
C1191       C  0.15816068  0.55185564  0.03701632    -0.01770
C1192       C  0.12074358  0.54471366  0.55932612     0.03200
C1193       C  0.04332826  0.92212390  0.03924239     0.37850
C1194       C  0.20107169  0.59257928  0.54039549     0.37840
C1195       C  0.12484649  0.57930290  0.58468308     0.36270
C1196       C  0.10298616  0.94688055  0.97731459     0.36270
N1197       N  0.12977048  0.60769815  0.60479374    -0.38550
N1198       N  0.09466106  0.92092094  0.95332899    -0.38550
N1199       N  0.23525475  0.62520895  0.54307389    -0.38000
N1200       N  0.01682719  0.88461798  0.04101848    -0.38000
C1201       C  0.48479270  0.01823767  0.03349537     0.03800
C1202       C  0.52852337  0.03118797  0.54397085    -0.12350
C1203       C  0.53630624  0.00140843  0.56461752     0.01300
C1204       C  0.99944586  0.46097798  0.57680623    -0.10870
C1205       C  0.96008043  0.44603278  0.05708023     0.03790
C1206       C  0.95031962  0.47648623  0.04235978    -0.10290
H1207       H  0.55622825  0.06204510  0.53255424     0.09390
H1208       H  0.00383467  0.43646738  0.59120341     0.06920
H1209       H  0.91805607  0.46493998  0.02929665     0.06770
C1210       C  0.67394547  0.38743332  0.23576963     0.03800
C1211       C  0.64162178  0.34363359  0.22797610    -0.12350
C1212       C  0.65387387  0.31255345  0.22242884     0.01300
C1213       C  0.69842856  0.32589874  0.21464031    -0.10870
C1214       C  0.73091521  0.36719809  0.22861136     0.03790
C1215       C  0.71920395  0.40004592  0.23246856    -0.10290
H1216       H  0.60686125  0.33092673  0.23600902     0.09390
H1217       H  0.70701752  0.30082526  0.20959755     0.06920
H1218       H  0.74358454  0.43311587  0.24139736     0.06770
C1219       C  0.89318790  0.19955322  0.19076569     0.03800
C1220       C  0.84789375  0.16734623  0.18843995    -0.12350
C1221       C  0.82918080  0.15853620  0.15163669     0.01300
C1222       C  0.85182075  0.19063650  0.12299320    -0.10870
C1223       C  0.87868480  0.23370750  0.13635509     0.03790
C1224       C  0.90908292  0.23575328  0.16394306    -0.10290
H1225       H  0.83167188  0.14436707  0.21217151     0.09390
H1226       H  0.83845462  0.18496963  0.09459213     0.06920
H1227       H  0.94234765  0.26477179  0.16534329     0.06770
C1228       C  0.80253732  0.26589210  0.42606877     0.03800
C1229       C  0.84241579  0.30443146  0.43417342    -0.12350
C1230       C  0.84258024  0.33941784  0.45212173     0.01300
C1231       C  0.80384092  0.34071438  0.45687173    -0.10870
C1232       C  0.76244114  0.30165040  0.45430937     0.03790
C1233       C  0.76149522  0.26316976  0.43843782    -0.10290
H1234       H  0.87412372  0.30592197  0.43040845     0.09390
H1235       H  0.80660812  0.36944067  0.47115134     0.06920
H1236       H  0.72988221  0.23234569  0.43564251     0.06770
C1237       C  0.86983058  0.30688596  0.30636417     0.03800
C1238       C  0.90664669  0.33859923  0.28255784    -0.12350
C1239       C  0.91564695  0.38252797  0.27742765     0.01300
C1240       C  0.89301664  0.39627921  0.30095697    -0.10870
C1241       C  0.85207907  0.36557404  0.31868710     0.03790
C1242       C  0.84204476  0.32103404  0.32325488    -0.10290
H1243       H  0.92812036  0.32950809  0.26773204     0.09390
H1244       H  0.90430215  0.43097895  0.29985585     0.06920
H1245       H  0.81237632  0.29709284  0.33929504     0.06770
C1246       C  0.78041156  0.35516867  0.10611040     0.03800
C1247       C  0.76245059  0.31917342  0.13151784    -0.12350
C1248       C  0.78952840  0.31321580  0.15674973     0.01300
C1249       C  0.83325440  0.34871038  0.16347991    -0.10870
C1250       C  0.85255599  0.38799141  0.14182034     0.03790
C1251       C  0.82559079  0.39134802  0.11234866    -0.10290
H1252       H  0.72819063  0.29228517  0.12809491     0.09390
H1253       H  0.85391943  0.34483759  0.18425366     0.06920
H1254       H  0.83984948  0.42054578  0.09397407     0.06770
C1255       C  0.73852717  0.04081569  0.43325240     0.03800
C1256       C  0.73996935  0.50074861  0.43908790    -0.12350
C1257       C  0.71414855  0.47068821  0.47032816     0.01300
C1258       C  0.69649053  0.48594789  0.49788426    -0.10870
C1259       C  0.69015658  0.02096379  0.48986863     0.03790
C1260       C  0.71111775  0.04848479  0.45811147    -0.10290
H1261       H  0.75886681  0.49255104  0.41911644     0.09390
H1262       H  0.68000453  0.46599162  0.52348936     0.06920
H1263       H  0.70590671  0.07580483  0.45300895     0.06770
C1264       C  0.52125938  0.12029700  0.11368953     0.03800
C1265       C  0.48290253  0.12285047  0.11661272    -0.12350
C1266       C  0.48512069  0.16323585  0.11447607     0.01300
C1267       C  0.51802605  0.19615640  0.09137714    -0.10870
C1268       C  0.55643648  0.19518552  0.08111031     0.03790
C1269       C  0.55957642  0.15767688  0.09468649    -0.10290
H1270       H  0.45431433  0.09604054  0.13082819     0.09390
H1271       H  0.51570348  0.22509930  0.08568305     0.06920
H1272       H  0.59068044  0.15813679  0.09117640     0.06770
C1273       C  0.63339704  0.42017438  0.10184607     0.03800
C1274       C  0.67302474  0.45001876  0.11963608    -0.12350
C1275       C  0.67895833  0.48911320  0.13362950     0.01300
C1276       C  0.64314504  0.49599228  0.13691187    -0.10870
C1277       C  0.59954614  0.46202639  0.13079981     0.03790
C1278       C  0.59426057  0.42297949  0.11157137    -0.10290
H1279       H  0.70145207  0.44543359  0.11879400     0.09390
H1280       H  0.64954021  0.52779205  0.14717037     0.06920
H1281       H  0.56132100  0.39604949  0.10450883     0.06770
O1282       O  0.58342576  0.26652103  0.04893002    -0.84680
O1283       O  0.60649062  0.35731183  0.05775841    -0.81720
C1284       C  0.63932379  0.39192787  0.07190420     0.98790
O1285       O  0.67979506  0.40399635  0.06004366    -0.81760
O1286       O  0.74871003  0.38394328  0.06185347    -0.84400
C1287       C  0.74991991  0.35063496  0.07348524     1.03310
O1288       O  0.72220004  0.31196086  0.05899478    -0.77160
O1289       O  0.63032784  0.24207183  0.05240554    -0.77350
C1290       C  0.59204141  0.23640016  0.05994299     1.03260
O1291       O  0.57627397  0.31073559  0.98398839    -0.84670
O1292       O  0.66455187  0.39123249  0.98734760    -0.81740
C1293       C  0.70633770  0.42567902  0.48115680     0.98810
O1294       O  0.73976373  0.42529226  0.99480670    -0.81760
O1295       O  0.72884269  0.34028443  0.98625554    -0.84370
C1296       C  0.72456949  0.30186676  0.47583189     1.03280
O1297       O  0.69150747  0.26511578  0.98815231    -0.77190
O1298       O  0.61375139  0.27349961  0.98019815    -0.77340
C1299       C  0.57942171  0.27847709  0.47070119     1.03240
Cr1300     Cr  0.62326768  0.32627695  0.01853100     1.93740
Cr1301     Cr  0.70283272  0.37301540  0.02323591     1.93210
Cr1302     Cr  0.67071244  0.29442863  0.01981413     1.39100
O1303       O  0.66297930  0.32899631  0.04403086    -1.22420
C1304       C  0.96212009  0.19915323  0.42243648     0.03800
C1305       C  0.95672238  0.16035634  0.43762519    -0.12350
C1306       C  0.48972073  0.16080573  0.45902011     0.01300
C1307       C  0.53035756  0.19893446  0.46510721    -0.10870
C1308       C  0.53824258  0.23993334  0.45282303     0.03790
C1309       C  0.50291765  0.24043109  0.43153804    -0.10290
H1310       H  0.92613425  0.12874734  0.43340465     0.09390
H1311       H  0.55467220  0.19633189  0.48226304     0.06920
H1312       H  0.50719580  0.27166400  0.42214144     0.06770
C1313       C  0.69115334  0.07021233  0.30093412     0.03800
C1314       C  0.67608970  0.02822010  0.31718426    -0.12350
C1315       C  0.63185841  0.99229640  0.31179741     0.01300
C1316       C  0.60112056  0.00038429  0.29385853    -0.10870
C1317       C  0.61544582  0.03755598  0.27062065     0.03790
C1318       C  0.66023617  0.07457389  0.27655216    -0.10290
H1319       H  0.69960963  0.02335601  0.33325093     0.09390
H1320       H  0.56640344  0.97442088  0.29287908     0.06920
H1321       H  0.67091140  0.10566764  0.26198832     0.06770
C1322       C  0.92843037  0.12815319  0.29389238     0.03800
C1323       C  0.97241451  0.16362968  0.29741068    -0.12350
C1324       C  0.00889711  0.15777487  0.29083703     0.01300
C1325       C  0.00263478  0.11601163  0.28401978    -0.10870
C1326       C  0.96209665  0.08308316  0.26965649     0.03790
C1327       C  0.92349801  0.08728416  0.27836543    -0.10290
H1328       H  0.97862765  0.19638809  0.30396347     0.09390
H1329       H  0.03221367  0.11369013  0.27938921     0.06920
H1330       H  0.89054538  0.05965649  0.27225957     0.06770
O1331       O  0.75321604  0.10386267  0.39251354    -0.84680
O1332       O  0.77435932  0.19428117  0.39632805    -0.81720
C1333       C  0.80788053  0.23165897  0.40464155     0.98790
O1334       O  0.84750057  0.24185784  0.39207941    -0.81760
O1335       O  0.91844754  0.22432831  0.38961671    -0.84400
C1336       C  0.92324232  0.19224906  0.39831927     1.03310
O1337       O  0.89374281  0.15267268  0.38643584    -0.77250
O1338       O  0.80212574  0.08154482  0.39060158    -0.77350
C1339       C  0.76545688  0.07639216  0.40341596     1.03260
O1340       O  0.73609006  0.14220743  0.32795136    -0.84670
O1341       O  0.82270528  0.22580389  0.32463561    -0.81740
C1342       C  0.86324238  0.26174902  0.31738698     0.98810
O1343       O  0.89884316  0.26100284  0.32439481    -0.81760
O1344       O  0.89586304  0.17446669  0.31759633    -0.84370
C1345       C  0.89015696  0.13431634  0.30962660     1.03280
O1346       O  0.85419928  0.09928908  0.32083355    -0.77190
O1347       O  0.77133337  0.10321886  0.32103932    -0.77340
C1348       C  0.73609579  0.10818870  0.31504190     1.03240
Cr1349     Cr  0.78755544  0.16114733  0.35740298     1.93740
Cr1350     Cr  0.86849620  0.20908458  0.35447092     1.93210
Cr1351     Cr  0.83587360  0.13035006  0.35322029     1.39100
O1352       O  0.83108014  0.16626537  0.37828921    -1.22420
O1353       O  0.92971197  0.41401686  0.16269080    -0.84680
O1354       O  0.52588684  0.43859234  0.15916887    -0.81720
C1355       C  0.56403508  0.97062923  0.14812206     0.98790
O1356       O  0.57430620  0.01098539  0.15584633    -0.81760
O1357       O  0.55139265  0.08054224  0.14969127    -0.84400
C1358       C  0.51754545  0.08205062  0.13863236     1.03310
O1359       O  0.97840665  0.05268649  0.15297439    -0.77160
O1360       O  0.90728366  0.46225825  0.16048962    -0.77350
C1361       C  0.89955762  0.42365140  0.15363523     1.03260
O1362       O  0.97143177  0.40546411  0.22733313    -0.84670
O1363       O  0.54800426  0.49277711  0.23057800    -0.81740
C1364       C  0.58334444  0.53273338  0.23883091     0.98810
O1365       O  0.59120354  0.06705107  0.21931128    -0.81760
O1366       O  0.50423433  0.05663615  0.22863975    -0.84370
C1367       C  0.46479450  0.05151396  0.24019235     1.03280
O1368       O  0.92906592  0.02206414  0.22427092    -0.77190
O1369       O  0.93949528  0.44742247  0.23468775    -0.77340
C1370       C  0.94423507  0.41359192  0.24528030     1.03240
Cr1371     Cr  0.98858369  0.45299369  0.19382355     1.93740
Cr1372     Cr  0.53957393  0.03317936  0.18941102     1.93210
Cr1373     Cr  0.95991145  0.50200487  0.19236808     1.39100
O1374       O  0.49527564  0.49425261  0.16818806    -1.22420
C1375       C  0.84849469  0.25163353  0.14589348    -0.04660
C1376       C  0.83871346  0.25785189  0.18514275    -0.01780
C1377       C  0.80133525  0.26159614  0.19376504     0.03210
C1378       C  0.77875579  0.26718189  0.16360214    -0.04660
C1379       C  0.77852221  0.24666532  0.12876022    -0.01770
C1380       C  0.81770408  0.24765022  0.11714919     0.03200
C1381       C  0.86482293  0.25861493  0.21711621     0.37850
C1382       C  0.73946476  0.22745196  0.10459947     0.37840
C1383       C  0.82496785  0.24228023  0.07643572     0.36270
C1384       C  0.78632824  0.26010500  0.23320429     0.36270
N1385       N  0.83112981  0.23714735  0.04425624    -0.38550
N1386       N  0.77492228  0.25634989  0.26531961    -0.38550
N1387       N  0.70811873  0.21186785  0.08540864    -0.38000
N1388       N  0.88600590  0.25659338  0.24139290    -0.38000
C1389       C  0.92256757  0.18637331  0.21009942    -0.04660
C1390       C  0.90965423  0.14273725  0.19965209    -0.01780
C1391       C  0.92174917  0.13917518  0.16169592     0.03210
C1392       C  0.96323097  0.17392968  0.14640066    -0.04660
C1393       C  0.98823895  0.21289047  0.16975704    -0.01770
C1394       C  0.96809611  0.21678072  0.20423967     0.03200
C1395       C  0.87113518  0.10456048  0.21774360     0.37850
C1396       C  0.53269904  0.24900068  0.15912624     0.37840
C1397       C  0.98998103  0.25519549  0.22888229     0.36270
C1398       C  0.88973174  0.10272847  0.13813098     0.36270
N1399       N  0.00740676  0.28574467  0.24882625    -0.38550
N1400       N  0.86383821  0.07301202  0.12021439    -0.38550
N1401       N  0.56778327  0.27870279  0.15077641    -0.38000
N1402       N  0.83924915  0.07390837  0.23054705    -0.38000
C1403       C  0.78902611  0.11566141  0.14410399    -0.04660
C1404       C  0.78707267  0.09036650  0.11136911    -0.01780
C1405       C  0.75524394  0.04530391  0.11078700     0.03210
C1406       C  0.72351121  0.02648633  0.14121592    -0.04660
C1407       C  0.72762265  0.05067689  0.17456710    -0.01770
C1408       C  0.75650650  0.09610376  0.17419509     0.03200
C1409       C  0.81514039  0.10962765  0.07695960     0.37850
C1410       C  0.70027008  0.02779076  0.20816977     0.37840
C1411       C  0.75123438  0.12309381  0.20321639     0.36270
C1412       C  0.75753410  0.01833153  0.08010923     0.36270
N1413       N  0.74840067  0.14591369  0.22575368    -0.38550
N1414       N  0.76246407  0.49694915  0.05738559    -0.38550
N1415       N  0.67761646  0.00669107  0.23375646    -0.38000
N1416       N  0.83538029  0.12397402  0.04831401    -0.38000
C1417       C  0.76405001  0.36870262  0.25669953    -0.04660
C1418       C  0.75001338  0.33406509  0.28505630    -0.01780
C1419       C  0.77297723  0.34261895  0.31966935     0.03210
C1420       C  0.81672967  0.37810890  0.32152792    -0.04660
C1421       C  0.82516961  0.41571444  0.29970752    -0.01770
C1422       C  0.80337280  0.40980432  0.26426898     0.03200
C1423       C  0.71478838  0.28837148  0.27980303     0.37850
C1424       C  0.85520569  0.45968801  0.31439366     0.37840
C1425       C  0.82133230  0.44544252  0.23586312     0.36270
C1426       C  0.74952788  0.31706618  0.35377339     0.36270
N1427       N  0.83457995  0.47320485  0.21258414    -0.38550
N1428       N  0.72642205  0.29557648  0.37909182    -0.38550
N1429       N  0.87915804  0.49467306  0.32645181    -0.38000
N1430       N  0.68881948  0.25087881  0.27715671    -0.38000
C1431       C  0.62112010  0.44527862  0.31361557    -0.04660
C1432       C  0.59586677  0.41852434  0.28289594    -0.01780
C1433       C  0.61698500  0.40817882  0.25348999     0.03210
C1434       C  0.65889915  0.41203792  0.26086462    -0.04660
C1435       C  0.67727911  0.42660027  0.29850987    -0.01770
C1436       C  0.65510189  0.43879402  0.32551893     0.03200
C1437       C  0.54775314  0.39654136  0.28529139     0.37850
C1438       C  0.71702533  0.42771645  0.31158605     0.37840
C1439       C  0.66069028  0.43666013  0.36639307     0.36270
C1440       C  0.59416556  0.39179304  0.21708410     0.36270
N1441       N  0.66297343  0.93151906  0.39890672    -0.38550
N1442       N  0.57494425  0.37729973  0.18870917    -0.38550
N1443       N  0.74844552  0.42939991  0.32395709    -0.38000
N1444       N  0.50922427  0.37832138  0.28846570    -0.38000
C1445       C  0.55114582  0.19533926  0.27576273    -0.04660
C1446       C  0.57886288  0.23050823  0.29953619    -0.01780
C1447       C  0.61426580  0.26898898  0.28260344     0.03210
C1448       C  0.62422501  0.27015052  0.24208568    -0.04660
C1449       C  0.60102534  0.23212606  0.22000003    -0.01770
C1450       C  0.56252181  0.19620107  0.23606000     0.03200
C1451       C  0.57111457  0.22675564  0.34109600     0.37850
C1452       C  0.61600240  0.23079625  0.18080182     0.37840
C1453       C  0.03141319  0.16208272  0.21129104     0.36270
C1454       C  0.64069795  0.30627590  0.30760257     0.36270
N1455       N  0.00283410  0.13333720  0.19485141    -0.38550
N1456       N  0.66070805  0.33402827  0.32966373    -0.38550
N1457       N  0.62919147  0.23028493  0.14991028    -0.38000
N1458       N  0.56568069  0.22343767  0.37433791    -0.38000
C1459       C  0.94435728  0.40699647  0.53279759    -0.04660
C1460       C  0.90458537  0.37028256  0.04490446    -0.01780
C1461       C  0.86965440  0.35052232  0.01893999     0.03210
C1462       C  0.87812033  0.36327702  0.47939285    -0.04660
C1463       C  0.92171189  0.39215299  0.46564104    -0.01770
C1464       C  0.95537897  0.41385059  0.49257158     0.03200
C1465       C  0.90202538  0.35337285  0.08338058     0.37850
C1466       C  0.93110318  0.40092912  0.42431938     0.37840
C1467       C  0.99994818  0.44548520  0.47872244     0.36270
C1468       C  0.82506916  0.31862143  0.03267528     0.36270
N1469       N  0.03515045  0.46981503  0.46575928    -0.38550
N1470       N  0.78856247  0.29308355  0.04181042    -0.38550
N1471       N  0.93827763  0.40758718  0.39137148    -0.38000
N1472       N  0.90353077  0.34066672  0.11379723    -0.38000
C1473       C  0.47587397  0.04689421  0.50992089    -0.04660
C1474       C  0.45362708  0.06628747  0.02749064    -0.01780
C1475       C  0.45764982  0.10407659  0.01058839     0.03210
C1476       C  0.48151987  0.11977761  0.47526582    -0.04660
C1477       C  0.99591314  0.09540944  0.45424479    -0.01770
C1478       C  0.99170947  0.05771280  0.47117353     0.03200
C1479       C  0.42503828  0.04536775  0.06130286     0.37850
C1480       C  0.01394107  0.10864217  0.41490597     0.37840
C1481       C  0.99588863  0.02752152  0.44575073     0.36270
C1482       C  0.43910603  0.12782803  0.02959725     0.36270
N1483       N  0.99759459  0.00622059  0.42100095    -0.38550
N1484       N  0.42551161  0.14816564  0.04426372    -0.38550
N1485       N  0.02794483  0.11883168  0.38353486    -0.38000
N1486       N  0.40191966  0.02608251  0.08750700    -0.38000
C1487       C  0.57938231  0.00365192  0.55701906    -0.04660
C1488       C  0.57893457  0.46855104  0.53601099    -0.01780
C1489       C  0.61220580  0.47874676  0.50852401     0.03210
C1490       C  0.65224490  0.01926717  0.50990048    -0.04660
C1491       C  0.65760931  0.05183287  0.53643682    -0.01770
C1492       C  0.62033729  0.04480317  0.05890604     0.03200
C1493       C  0.54377235  0.42208867  0.53933212     0.37850
C1494       C  0.70065736  0.09245086  0.03984610     0.37840
C1495       C  0.62458853  0.07944460  0.08427062     0.36270
C1496       C  0.60405528  0.44676527  0.47799562     0.36270
N1497       N  0.62960916  0.10785858  0.10440263    -0.38550
N1498       N  0.59585423  0.42067697  0.45415971    -0.38550
N1499       N  0.73492026  0.12499714  0.04249889    -0.38000
N1500       N  0.51717449  0.38460129  0.54095189    -0.38000
C1501       C  0.48477842  0.01823262  0.53350877     0.03800
C1502       C  0.52853236  0.03118745  0.04396747    -0.12350
C1503       C  0.53630512  0.00140284  0.06461631     0.01300
C1504       C  0.99946042  0.46095168  0.07676800    -0.10870
C1505       C  0.96004648  0.44603276  0.55714442     0.03790
C1506       C  0.95025433  0.47646472  0.54242555    -0.10290
H1507       H  0.55624190  0.06204555  0.03255738     0.09390
H1508       H  0.00382589  0.43642912  0.09117211     0.06920
H1509       H  0.91797449  0.46489754  0.52938709     0.06770
C1510       C  0.67389618  0.38747528  0.73574545     0.03800
C1511       C  0.64156612  0.34367876  0.72794485    -0.12350
C1512       C  0.65381193  0.31259703  0.72237669     0.01300
C1513       C  0.69836225  0.32594241  0.71456429    -0.10870
C1514       C  0.73085628  0.36723035  0.72854865     0.03790
C1515       C  0.71915346  0.40008265  0.73242740    -0.10290
H1516       H  0.60680925  0.33097034  0.73599152     0.09390
H1517       H  0.70694626  0.30086954  0.70949675     0.06920
H1518       H  0.74354325  0.43314924  0.74135623     0.06770
C1519       C  0.89318413  0.19956726  0.69077449     0.03800
C1520       C  0.84789204  0.16735174  0.68845521    -0.12350
C1521       C  0.82917447  0.15853331  0.65165368     0.01300
C1522       C  0.85180344  0.19063417  0.62300874    -0.10870
C1523       C  0.87865519  0.23370745  0.63636826     0.03790
C1524       C  0.90906341  0.23576592  0.66395206    -0.10290
H1525       H  0.83167855  0.14437337  0.71218865     0.09390
H1526       H  0.83844133  0.18496079  0.59460658     0.06920
H1527       H  0.94232533  0.26478951  0.66534589     0.06770
C1528       C  0.80253965  0.26591585  0.92606175     0.03800
C1529       C  0.84241200  0.30448414  0.93412371    -0.12350
C1530       C  0.84256198  0.33946981  0.95206206     0.01300
C1531       C  0.80381122  0.34074303  0.95681443    -0.10870
C1532       C  0.76242204  0.30165952  0.95428572     0.03790
C1533       C  0.76149431  0.26317422  0.93844906    -0.10290
H1534       H  0.87412989  0.30599870  0.93034218     0.09390
H1535       H  0.80657021  0.36947389  0.97107757     0.06920
H1536       H  0.72989084  0.23233249  0.93568932     0.06770
C1537       C  0.86982455  0.30688322  0.80636413     0.03800
C1538       C  0.90664487  0.33859999  0.78256390    -0.12350
C1539       C  0.91563747  0.38252571  0.77742957     0.01300
C1540       C  0.89298565  0.39626626  0.80094371    -0.10870
C1541       C  0.85203962  0.36555256  0.81865634     0.03790
C1542       C  0.84202256  0.32102003  0.82323683    -0.10290
H1543       H  0.92812564  0.32951231  0.76774513     0.09390
H1544       H  0.90426344  0.43096349  0.79983869     0.06920
H1545       H  0.81235581  0.29707111  0.83927133     0.06770
C1546       C  0.78041061  0.35517981  0.60611477     0.03800
C1547       C  0.76244394  0.31918729  0.63152578    -0.12350
C1548       C  0.78951705  0.31322448  0.65675986     0.01300
C1549       C  0.83324723  0.34871357  0.66348702    -0.10870
C1550       C  0.85255446  0.38799437  0.64182594     0.03790
C1551       C  0.82559265  0.39135429  0.61235233    -0.10290
H1552       H  0.72818093  0.29230476  0.62810521     0.09390
H1553       H  0.85390896  0.34483799  0.68426241     0.06920
H1554       H  0.83985596  0.42055098  0.59397602     0.06770
C1555       C  0.73853108  0.04081996  0.93326674     0.03800
C1556       C  0.73996998  0.50074528  0.93908134    -0.12350
C1557       C  0.71418542  0.47070473  0.97034452     0.01300
C1558       C  0.69659820  0.48600087  0.99793371    -0.10870
C1559       C  0.69016896  0.02096523  0.98988884     0.03790
C1560       C  0.71112325  0.04848651  0.95813020    -0.10290
H1561       H  0.75883389  0.49252968  0.91908709     0.09390
H1562       H  0.68014593  0.46606196  0.02355432     0.06920
H1563       H  0.70590829  0.07580442  0.95302996     0.06770
C1564       C  0.52126164  0.12030404  0.61369699     0.03800
C1565       C  0.48290658  0.12286091  0.61662058    -0.12350
C1566       C  0.48512539  0.16324647  0.61447504     0.01300
C1567       C  0.51802923  0.19615996  0.59137103    -0.10870
C1568       C  0.55643957  0.19518703  0.58110863     0.03790
C1569       C  0.55957828  0.15767949  0.59468955    -0.10290
H1570       H  0.45431976  0.09605466  0.63084076     0.09390
H1571       H  0.51570410  0.22509963  0.58566783     0.06920
H1572       H  0.59068150  0.15813758  0.59118058     0.06770
C1573       C  0.63339276  0.42017897  0.60183570     0.03800
C1574       C  0.67302161  0.45002879  0.61962177    -0.12350
C1575       C  0.67895171  0.48912273  0.63361368     0.01300
C1576       C  0.64313787  0.49599959  0.63689539    -0.10870
C1577       C  0.59953963  0.46203031  0.63078947     0.03790
C1578       C  0.59425495  0.42298204  0.61156274    -0.10290
H1579       H  0.70145302  0.44544982  0.61877635     0.09390
H1580       H  0.64953293  0.52780014  0.64715173     0.06920
H1581       H  0.56131556  0.39604953  0.60450345     0.06770
O1582       O  0.58342847  0.26652025  0.54892885    -0.84680
O1583       O  0.60648747  0.35730887  0.55775475    -0.81720
C1584       C  0.63931993  0.39192913  0.57189633     0.98790
O1585       O  0.67979109  0.40399994  0.56003304    -0.81760
O1586       O  0.74871130  0.38395301  0.56185090    -0.84400
C1587       C  0.74992145  0.35064543  0.57348584     1.03310
O1588       O  0.72220312  0.31197018  0.55899552    -0.77160
O1589       O  0.63033258  0.24207412  0.55240496    -0.77350
C1590       C  0.59204528  0.23640074  0.55994168     1.03260
O1591       O  0.57626880  0.31072585  0.48398740    -0.84670
O1592       O  0.66454032  0.39122130  0.48734146    -0.81740
C1593       C  0.70635375  0.42568523  0.98116533     0.98810
O1594       O  0.73975539  0.42529597  0.49479463    -0.81760
O1595       O  0.72885704  0.34028737  0.48625789    -0.84370
C1596       C  0.72455576  0.30186632  0.97582439     1.03280
O1597       O  0.69151369  0.26511832  0.48815397    -0.77190
O1598       O  0.61375109  0.27349464  0.48019551    -0.77340
C1599       C  0.57942467  0.27848524  0.97070282     1.03240
Cr1600     Cr  0.62326486  0.32627232  0.51852817     1.93740
Cr1601     Cr  0.70283416  0.37301823  0.52322949     1.93210
Cr1602     Cr  0.67071535  0.29443111  0.51981184     1.39100
O1603       O  0.66298086  0.32899869  0.54402634    -1.22420
C1604       C  0.96212226  0.19916153  0.92244251     0.03800
C1605       C  0.95672747  0.16036424  0.93762668    -0.12350
C1606       C  0.48972974  0.16081423  0.95901454     0.01300
C1607       C  0.53036607  0.19894337  0.96510075    -0.10870
C1608       C  0.53824652  0.23994269  0.95282340     0.03790
C1609       C  0.50291859  0.24044041  0.93154419    -0.10290
H1610       H  0.92613968  0.12875476  0.93340662     0.09390
H1611       H  0.55468325  0.19634002  0.98225205     0.06920
H1612       H  0.50719352  0.27167339  0.92215210     0.06770
C1613       C  0.69115170  0.07021868  0.80094899     0.03800
C1614       C  0.67608755  0.02822570  0.81719765    -0.12350
C1615       C  0.63185656  0.99230204  0.81180914     0.01300
C1616       C  0.60111957  0.00039073  0.79386943    -0.10870
C1617       C  0.61544594  0.03756290  0.77063189     0.03790
C1618       C  0.66023573  0.07458087  0.77656575    -0.10290
H1619       H  0.69960678  0.02336125  0.83326506     0.09390
H1620       H  0.56640245  0.97442778  0.79288882     0.06920
H1621       H  0.67091121  0.10567527  0.76200303     0.06770
C1622       C  0.92843035  0.12816318  0.79390262     0.03800
C1623       C  0.97241205  0.16364616  0.79741204    -0.12350
C1624       C  0.00889948  0.15780104  0.79083165     0.01300
C1625       C  0.00264564  0.11604005  0.78401735    -0.10870
C1626       C  0.96210521  0.08310045  0.76966546     0.03790
C1627       C  0.92350299  0.08729439  0.77837995    -0.10290
H1628       H  0.97861937  0.19640343  0.80396065     0.09390
H1629       H  0.03222821  0.11372654  0.77937983     0.06920
H1630       H  0.89055097  0.05966203  0.77228006     0.06770
O1631       O  0.75321770  0.10386996  0.89253238    -0.84680
O1632       O  0.77436566  0.19429341  0.89634469    -0.81720
C1633       C  0.80788673  0.23167446  0.90465243     0.98790
O1634       O  0.84750619  0.24187151  0.89209114    -0.81760
O1635       O  0.91844894  0.22433682  0.88962693    -0.84400
C1636       C  0.92324327  0.19225731  0.89832887     1.03310
O1637       O  0.89374305  0.15268071  0.88644679    -0.77250
O1638       O  0.80212716  0.08155191  0.89061475    -0.77350
C1639       C  0.76545890  0.07639862  0.90343147     1.03260
O1640       O  0.73608728  0.14221219  0.82797110    -0.84670
O1641       O  0.82270404  0.22580570  0.82464754    -0.81740
C1642       C  0.86324037  0.26175061  0.81739556     0.98810
O1643       O  0.89884268  0.26100799  0.82440491    -0.81760
O1644       O  0.89586069  0.17447324  0.81760826    -0.84370
C1645       C  0.89015547  0.13432341  0.80963831     1.03280
O1646       O  0.85419838  0.09929587  0.82084578    -0.77190
O1647       O  0.77133174  0.10322542  0.82105482    -0.77340
C1648       C  0.73609349  0.10819455  0.81505920     1.03240
Cr1649     Cr  0.78755526  0.16115328  0.85742001     1.93740
Cr1650     Cr  0.86849660  0.20909247  0.85448363     1.93210
Cr1651     Cr  0.83587325  0.13035736  0.85323355     1.39100
O1652       O  0.83108148  0.16627340  0.87830368    -1.22420
O1653       O  0.92970986  0.41401800  0.66270132    -0.84680
O1654       O  0.52588672  0.43859414  0.65917654    -0.81720
C1655       C  0.56403331  0.97063543  0.64812838     0.98790
O1656       O  0.57430615  0.01099196  0.65585394    -0.81760
O1657       O  0.55139472  0.08054989  0.64969975    -0.84400
C1658       C  0.51754749  0.08205914  0.63864219     1.03310
O1659       O  0.97840991  0.05269684  0.65298563    -0.77160
O1660       O  0.90728339  0.46226082  0.66049542    -0.77350
C1661       C  0.89955637  0.42365316  0.65364305     1.03260
O1662       O  0.97143595  0.40546961  0.72734513    -0.84670
O1663       O  0.54800718  0.49278267  0.73058223    -0.81740
C1664       C  0.58334791  0.53273939  0.73883229     0.98810
O1665       O  0.59120680  0.06705855  0.71932001    -0.81760
O1666       O  0.50423940  0.05664833  0.72865021    -0.84370
C1667       C  0.46480040  0.05152705  0.74020493     1.03280
O1668       O  0.92907143  0.02207541  0.72428472    -0.77190
O1669       O  0.93949363  0.44742380  0.73469252    -0.77340
C1670       C  0.94423414  0.41359430  0.74528755     1.03240
Cr1671     Cr  0.98858492  0.45299697  0.69383159     1.93740
Cr1672     Cr  0.53957608  0.03318800  0.68942045     1.93210
Cr1673     Cr  0.95991093  0.50200740  0.69237394     1.39100
O1674       O  0.49527375  0.49425411  0.66819393    -1.22420
C1675       C  0.84845237  0.25161875  0.64591040    -0.04660
C1676       C  0.83868111  0.25784707  0.68515980    -0.01780
C1677       C  0.80130818  0.26159906  0.69378573     0.03210
C1678       C  0.77872749  0.26718613  0.66362448    -0.04660
C1679       C  0.77847708  0.24665299  0.62878763    -0.01770
C1680       C  0.81765089  0.24762350  0.61717174     0.03200
C1681       C  0.86479447  0.25861111  0.71712985     0.37850
C1682       C  0.73941467  0.22744474  0.60463278     0.37840
C1683       C  0.82489449  0.24222901  0.57645939     0.36270
C1684       C  0.78629552  0.26009307  0.73322569     0.36270
N1685       N  0.83103853  0.23707685  0.54428028    -0.38550
N1686       N  0.77488328  0.25632288  0.76534050    -0.38550
N1687       N  0.70806610  0.21186689  0.58544522    -0.38000
N1688       N  0.88598332  0.25659259  0.74140251    -0.38000
C1689       C  0.92257744  0.18639618  0.71009553    -0.04660
C1690       C  0.90966835  0.14276057  0.69965025    -0.01780
C1691       C  0.92175621  0.13919578  0.66169262     0.03210
C1692       C  0.96323442  0.17394890  0.64639175    -0.04660
C1693       C  0.98824009  0.21291771  0.66973963    -0.01770
C1694       C  0.96810244  0.21681020  0.70422487     0.03200
C1695       C  0.87115729  0.10458180  0.71774782     0.37850
C1696       C  0.53269020  0.24903683  0.65909600     0.37840
C1697       C  0.98998551  0.25523207  0.72885966     0.36270
C1698       C  0.88973775  0.10274297  0.63813359     0.36270
N1699       N  0.00740779  0.28578639  0.74879817    -0.38550
N1700       N  0.86384352  0.07302089  0.62022273    -0.38550
N1701       N  0.56776605  0.27874584  0.65073552    -0.38000
N1702       N  0.83927606  0.07392725  0.73055446    -0.38000
C1703       C  0.78902585  0.11565287  0.64412418    -0.04660
C1704       C  0.78707122  0.09036146  0.61138608    -0.01780
C1705       C  0.75523891  0.04530019  0.61079884     0.03210
C1706       C  0.72350582  0.02647999  0.64122731    -0.04660
C1707       C  0.72761887  0.05066637  0.67458209    -0.01770
C1708       C  0.75650706  0.09609251  0.67421550     0.03200
C1709       C  0.81514039  0.10962509  0.57697768     0.37850
C1710       C  0.70025967  0.02777972  0.70818150     0.37840
C1711       C  0.75123561  0.12308034  0.70323974     0.36270
C1712       C  0.75751927  0.01833303  0.58011074     0.36270
N1713       N  0.74840384  0.14589991  0.72577861    -0.38550
N1714       N  0.76240006  0.49698192  0.55731911    -0.38550
N1715       N  0.67760056  0.00668388  0.73376712    -0.38000
N1716       N  0.83538148  0.12397325  0.54833291    -0.38000
C1717       C  0.76398729  0.36870908  0.75662885    -0.04660
C1718       C  0.74994948  0.33404957  0.78496364    -0.01780
C1719       C  0.77291945  0.34256811  0.81957196     0.03210
C1720       C  0.81666951  0.37806430  0.82144645    -0.04660
C1721       C  0.82512087  0.41568241  0.79963871    -0.01770
C1722       C  0.80331731  0.40979875  0.76420872     0.03200
C1723       C  0.71472980  0.28835977  0.77967777     0.37850
C1724       C  0.85515316  0.45964829  0.81434320     0.37840
C1725       C  0.82128642  0.44545248  0.73581732     0.36270
C1726       C  0.74950590  0.31691399  0.85364561     0.36270
N1727       N  0.83454891  0.47323011  0.71255171    -0.38550
N1728       N  0.72644111  0.29533205  0.87894529    -0.38550
N1729       N  0.87910189  0.49462714  0.82641498    -0.38000
N1730       N  0.68876562  0.25086920  0.77700354    -0.38000
C1731       C  0.62110230  0.44528785  0.81366392    -0.04660
C1732       C  0.59582434  0.41851871  0.78296186    -0.01780
C1733       C  0.61693198  0.40819956  0.75352596     0.03210
C1734       C  0.65886041  0.41207212  0.76086494    -0.04660
C1735       C  0.67726761  0.42663488  0.79850222    -0.01770
C1736       C  0.65509771  0.43880889  0.82553756     0.03200
C1737       C  0.54771183  0.39653488  0.78538461     0.37850
C1738       C  0.71703111  0.42776545  0.81154805     0.37840
C1739       C  0.66070042  0.43664211  0.86640471     0.36270
C1740       C  0.59409295  0.39183437  0.71712557     0.36270
N1741       N  0.66298367  0.93152740  0.89891168    -0.38550
N1742       N  0.57485717  0.37736100  0.68875351    -0.38550
N1743       N  0.74846547  0.42946092  0.82389835    -0.38000
N1744       N  0.50918514  0.37832061  0.78858130    -0.38000
C1745       C  0.55113674  0.19537131  0.77574584    -0.04660
C1746       C  0.57885260  0.23055200  0.79950966    -0.01780
C1747       C  0.61424007  0.26903581  0.78256529     0.03210
C1748       C  0.62417728  0.27019519  0.74204285    -0.04660
C1749       C  0.60098621  0.23216139  0.71996755    -0.01770
C1750       C  0.56250008  0.19622832  0.73604052     0.03200
C1751       C  0.57111938  0.22680767  0.84107156     0.37850
C1752       C  0.61596424  0.23082439  0.68077197     0.37840
C1753       C  0.03139329  0.16209531  0.71128249     0.36270
C1754       C  0.64068967  0.30632278  0.80755886     0.36270
N1755       N  0.00281275  0.13333629  0.69485601    -0.38550
N1756       N  0.66071735  0.33407366  0.82961648    -0.38550
N1757       N  0.62916078  0.23031076  0.64988434    -0.38000
N1758       N  0.56569657  0.22349688  0.87431478    -0.38000
C1759       C  0.94436382  0.40698712  0.03273898    -0.04660
C1760       C  0.90459791  0.37026819  0.54496266    -0.01780
C1761       C  0.86967262  0.35048866  0.51899743     0.03210
C1762       C  0.87809526  0.36333704  0.97933918    -0.04660
C1763       C  0.92168427  0.39221972  0.96558743    -0.01770
C1764       C  0.95536999  0.41384326  0.99251299     0.03200
C1765       C  0.90204532  0.35336043  0.58343828     0.37850
C1766       C  0.93106233  0.40107232  0.92427234     0.37840
C1767       C  0.99996594  0.44537645  0.97866129     0.36270
C1768       C  0.82508219  0.31860940  0.53273612     0.36270
N1769       N  0.03519411  0.46959769  0.96569152    -0.38550
N1770       N  0.78856793  0.29309227  0.54186761    -0.38550
N1771       N  0.93823225  0.40780320  0.89133135    -0.38000
N1772       N  0.90355181  0.34065104  0.61385314    -0.38000
C1773       C  0.47589946  0.04690709  0.00990847    -0.04660
C1774       C  0.45361643  0.06628661  0.52750752    -0.01780
C1775       C  0.45764238  0.10407627  0.51060222     0.03210
C1776       C  0.48153304  0.11978621  0.97525577    -0.04660
C1777       C  0.99593948  0.09542856  0.95423961    -0.01770
C1778       C  0.99174490  0.05773563  0.97116799     0.03200
C1779       C  0.42503421  0.04537324  0.56132403     0.37850
C1780       C  0.01397866  0.10867249  0.91490490     0.37840
C1781       C  0.99597085  0.02756804  0.94575011     0.36270
C1782       C  0.43910391  0.12783367  0.52960851     0.36270
N1783       N  0.99771723  0.00628892  0.92100068    -0.38550
N1784       N  0.42551294  0.14817615  0.54427121    -0.38550
N1785       N  0.02799166  0.11887237  0.88353729    -0.38000
N1786       N  0.40192098  0.02609007  0.58753145    -0.38000
C1787       C  0.57938175  0.00364510  0.05702699    -0.04660
C1788       C  0.57898450  0.46854029  0.03602903    -0.01780
C1789       C  0.61228444  0.47873853  0.00857090     0.03210
C1790       C  0.65225367  0.01925946  0.00992226    -0.04660
C1791       C  0.65761184  0.05182698  0.03645328    -0.01770
C1792       C  0.62033797  0.04480978  0.55889482     0.03200
C1793       C  0.54381052  0.42207902  0.03932782     0.37850
C1794       C  0.70065763  0.09245302  0.53983047     0.37840
C1795       C  0.62459263  0.07944920  0.58426382     0.36270
C1796       C  0.60416901  0.44674640  0.97806163     0.36270
N1797       N  0.62961313  0.10785971  0.60440040    -0.38550
N1798       N  0.59598865  0.42064532  0.95424251    -0.38550
N1799       N  0.73492327  0.12499607  0.54248393    -0.38000
N1800       N  0.51720184  0.38459387  0.04093143    -0.38000
C1801       C  0.48564548  0.51845789  0.03326770     0.03800
C1802       C  0.52916867  0.53122870  0.54399951    -0.12350
C1803       C  0.53669809  0.50128923  0.56464856     0.01300
C1804       C  0.99919111  0.96113998  0.57702051    -0.10870
C1805       C  0.95963838  0.94601863  0.05755398     0.03790
C1806       C  0.94959730  0.97630634  0.04291894    -0.10290
H1807       H  0.55699041  0.56213079  0.53278157     0.09390
H1808       H  0.00376258  0.93670771  0.59133417     0.06920
H1809       H  0.91719498  0.96460042  0.03007509     0.06770
C1810       C  0.67420937  0.88752588  0.23567928     0.03800
C1811       C  0.64186923  0.84374281  0.22784186    -0.12350
C1812       C  0.65407633  0.81261639  0.22237650     0.01300
C1813       C  0.69864341  0.82589978  0.21474266    -0.10870
C1814       C  0.73112525  0.86720455  0.22871443     0.03790
C1815       C  0.71945243  0.90008571  0.23248809    -0.10290
H1816       H  0.60709286  0.83107794  0.23578357     0.09390
H1817       H  0.70720227  0.80078970  0.20979293     0.06920
H1818       H  0.74382210  0.93314500  0.24144813     0.06770
C1819       C  0.89310056  0.69938736  0.19072568     0.03800
C1820       C  0.84778186  0.66720595  0.18866741    -0.12350
C1821       C  0.82885612  0.65818706  0.15194919     0.01300
C1822       C  0.85121128  0.69015722  0.12317152    -0.10870
C1823       C  0.87827097  0.73329324  0.13631591     0.03790
C1824       C  0.90882702  0.73547252  0.16380222    -0.10290
H1825       H  0.83173825  0.64432491  0.21249713     0.09390
H1826       H  0.83744670  0.68430855  0.09491398     0.06920
H1827       H  0.94210574  0.76449571  0.16503302     0.06770
C1828       C  0.80247368  0.76572012  0.42611110     0.03800
C1829       C  0.84238505  0.80409714  0.43442973    -0.12350
C1830       C  0.84263580  0.83910407  0.45239422     0.01300
C1831       C  0.80396606  0.84055421  0.45709235    -0.10870
C1832       C  0.76249834  0.80160602  0.45434379     0.03790
C1833       C  0.76145430  0.76312060  0.43836097    -0.10290
H1834       H  0.87403164  0.80543721  0.43078181     0.09390
H1835       H  0.80678368  0.86926967  0.47143781     0.06920
H1836       H  0.72978968  0.73238823  0.43539671     0.06770
C1837       C  0.86977879  0.80682447  0.30631997     0.03800
C1838       C  0.90660409  0.83853996  0.28250787    -0.12350
C1839       C  0.91564513  0.88249258  0.27741015     0.01300
C1840       C  0.89307489  0.89626209  0.30099725    -0.10870
C1841       C  0.85214449  0.86557565  0.31875119     0.03790
C1842       C  0.84204849  0.82101053  0.32326735    -0.10290
H1843       H  0.92805857  0.82943707  0.26766286     0.09390
H1844       H  0.90439541  0.93097286  0.29993332     0.06920
H1845       H  0.81237264  0.79708933  0.33931806     0.06770
C1846       C  0.78042166  0.85527177  0.10601327     0.03800
C1847       C  0.76245241  0.81924666  0.13139140    -0.12350
C1848       C  0.78951008  0.81326944  0.15663293     0.01300
C1849       C  0.83322928  0.84875626  0.16339385    -0.10870
C1850       C  0.85254420  0.88806125  0.14176827     0.03790
C1851       C  0.82559774  0.89144758  0.11228928    -0.10290
H1852       H  0.72819620  0.79236090  0.12794797     0.09390
H1853       H  0.85387757  0.84486408  0.18417274     0.06920
H1854       H  0.83986885  0.92066541  0.09393924     0.06770
C1855       C  0.73866496  0.54082654  0.43335695     0.03800
C1856       C  0.73989225  0.00077979  0.43906728    -0.12350
C1857       C  0.71372625  0.97052044  0.47008497     0.01300
C1858       C  0.69542482  0.98544349  0.49733478    -0.10870
C1859       C  0.69097489  0.52130811  0.49040625     0.03790
C1860       C  0.71152156  0.54862635  0.45844244    -0.10290
H1861       H  0.75911037  0.99276129  0.41931088     0.09390
H1862       H  0.67862787  0.96532467  0.52279270     0.06920
H1863       H  0.70619750  0.57587623  0.45335290     0.06770
C1864       C  0.52133373  0.62020279  0.11356552     0.03800
C1865       C  0.48289121  0.62262747  0.11630841    -0.12350
C1866       C  0.48498162  0.66294618  0.11405234     0.01300
C1867       C  0.51787769  0.69586052  0.09095445    -0.10870
C1868       C  0.55645044  0.69507365  0.08094565     0.03790
C1869       C  0.55967441  0.65765001  0.09464619    -0.10290
H1870       H  0.45429250  0.59578229  0.13046979     0.09390
H1871       H  0.51544319  0.72471980  0.08515284     0.06920
H1872       H  0.59085339  0.65822405  0.09130061     0.06770
C1873       C  0.63340786  0.92040120  0.10156469     0.03800
C1874       C  0.67310335  0.95047450  0.11914625    -0.12350
C1875       C  0.67894974  0.98958127  0.13301094     0.01300
C1876       C  0.64306351  0.99632120  0.13635748    -0.10870
C1877       C  0.59947661  0.96220498  0.13049224     0.03790
C1878       C  0.59422908  0.92312421  0.11134599    -0.10290
H1879       H  0.70162201  0.94603311  0.11825932     0.09390
H1880       H  0.64941929  0.02813908  0.14652502     0.06920
H1881       H  0.56128999  0.89610019  0.10440598     0.06770
O1882       O  0.58342703  0.76648455  0.04891194    -0.84680
O1883       O  0.60645702  0.85731156  0.05771282    -0.81720
C1884       C  0.63930064  0.89200431  0.07175608     0.98790
O1885       O  0.67975830  0.90406283  0.05986275    -0.81760
O1886       O  0.74871609  0.88404553  0.06172373    -0.84400
C1887       C  0.74993847  0.85074308  0.07337059     1.03310
O1888       O  0.72222754  0.81206033  0.05888351    -0.77160
O1889       O  0.63037748  0.74209511  0.05232983    -0.77350
C1890       C  0.59207190  0.73636973  0.05987530     1.03260
O1891       O  0.57613948  0.81063812  0.98400510    -0.84670
O1892       O  0.66436769  0.89110675  0.98724217    -0.81740
C1893       C  0.70611600  0.92560992  0.48100120     0.98810
O1894       O  0.73962046  0.92532605  0.99459350    -0.81760
O1895       O  0.72889511  0.84032186  0.98616754    -0.84370
C1896       C  0.72460249  0.80188956  0.47577143     1.03280
O1897       O  0.69150186  0.76515443  0.98806085    -0.77190
O1898       O  0.61369396  0.77348302  0.98013355    -0.77340
C1899       C  0.57933119  0.77842571  0.47067436     1.03240
Cr1900     Cr  0.62319050  0.82622446  0.01849038     1.93740
Cr1901     Cr  0.70280686  0.87305069  0.02309863     1.93210
Cr1902     Cr  0.67070611  0.79446714  0.01971955     1.39100
O1903       O  0.66297384  0.82902916  0.04394045    -1.22420
C1904       C  0.96206511  0.69908402  0.42233549     0.03800
C1905       C  0.95673055  0.66027166  0.43742635    -0.12350
C1906       C  0.48975540  0.66073367  0.45877937     0.01300
C1907       C  0.53035211  0.69889032  0.46493481    -0.10870
C1908       C  0.53817468  0.73989232  0.45275195     0.03790
C1909       C  0.50282020  0.74037819  0.43150303    -0.10290
H1910       H  0.92618443  0.62864346  0.43314944     0.09390
H1911       H  0.55469124  0.69629325  0.48206013     0.06920
H1912       H  0.50704736  0.77161202  0.42217759     0.06770
C1913       C  0.69101560  0.57009694  0.30106365     0.03800
C1914       C  0.67591195  0.52814735  0.31742871    -0.12350
C1915       C  0.63169514  0.49220789  0.31201644     0.01300
C1916       C  0.60098870  0.50028010  0.29397814    -0.10870
C1917       C  0.61534776  0.53744319  0.27071201     0.03790
C1918       C  0.66013074  0.57444431  0.27663868    -0.10290
H1919       H  0.69941051  0.52331351  0.33356212     0.09390
H1920       H  0.56627318  0.47432768  0.29296713     0.06920
H1921       H  0.67081954  0.60552073  0.26203933     0.06770
C1922       C  0.92834949  0.62813151  0.29373249     0.03800
C1923       C  0.97232023  0.66365398  0.29719242    -0.12350
C1924       C  0.00882992  0.65784526  0.29061370     0.01300
C1925       C  0.00261750  0.61609915  0.28382348    -0.10870
C1926       C  0.96208093  0.58311663  0.26950976     0.03790
C1927       C  0.92345431  0.58726621  0.27823806    -0.10290
H1928       H  0.97850030  0.69640544  0.30372232     0.09390
H1929       H  0.03221709  0.61381315  0.27919281     0.06920
H1930       H  0.89050817  0.55960028  0.27218009     0.06770
O1931       O  0.75317594  0.60377370  0.39253124    -0.84680
O1932       O  0.77427342  0.69415469  0.39630346    -0.81720
C1933       C  0.80779315  0.73152629  0.40460905     0.98790
O1934       O  0.84740772  0.74174113  0.39201567    -0.81760
O1935       O  0.91837124  0.72424906  0.38953631    -0.84400
C1936       C  0.92318039  0.69217611  0.39822702     1.03310
O1937       O  0.89369534  0.65260224  0.38632893    -0.77250
O1938       O  0.80209659  0.58146855  0.39054063    -0.77350
C1939       C  0.76545175  0.57632314  0.40341722     1.03260
O1940       O  0.73599713  0.64211162  0.32797575    -0.84670
O1941       O  0.82261589  0.72571865  0.32458647    -0.81740
C1942       C  0.86315826  0.76166381  0.31732406     0.98810
O1943       O  0.89875333  0.76090776  0.32432133    -0.81760
O1944       O  0.89576470  0.67439498  0.31749698    -0.84370
C1945       C  0.89006641  0.63425499  0.30950518     1.03280
O1946       O  0.85412399  0.59921793  0.32072647    -0.77190
O1947       O  0.77122506  0.60310725  0.32103779    -0.77340
C1948       C  0.73598128  0.60807701  0.31508706     1.03240
Cr1949     Cr  0.78748057  0.66104959  0.35737632     1.93740
Cr1950     Cr  0.86840987  0.70899266  0.35439787     1.93210
Cr1951     Cr  0.83580279  0.63026477  0.35314860     1.39100
O1952       O  0.83102055  0.66617587  0.37823209    -1.22420
O1953       O  0.92969226  0.91407668  0.16268126    -0.84680
O1954       O  0.52588658  0.93867152  0.15911358    -0.81720
C1955       C  0.56408366  0.47052483  0.14825345     0.98790
O1956       O  0.57437562  0.51089482  0.15594610    -0.81760
O1957       O  0.55146062  0.58048969  0.14967453    -0.84400
C1958       C  0.51762239  0.58199705  0.13857990     1.03310
O1959       O  0.97847575  0.55264069  0.15291322    -0.77160
O1960       O  0.90724448  0.96230557  0.16052631    -0.77350
C1961       C  0.89953415  0.92371169  0.15363208     1.03260
O1962       O  0.97143946  0.90549327  0.22729808    -0.84670
O1963       O  0.54804531  0.99284807  0.23053564    -0.81740
C1964       C  0.58339301  0.03281643  0.23876729     0.98810
O1965       O  0.59119009  0.56698029  0.21937157    -0.81760
O1966       O  0.50424010  0.55663376  0.22857283    -0.84370
C1967       C  0.46479500  0.55152154  0.24009150     1.03280
O1968       O  0.92907325  0.52204634  0.22418015    -0.77190
O1969       O  0.93947594  0.94741799  0.23469813    -0.77340
C1970       C  0.94422749  0.91358572  0.24526389     1.03240
Cr1971     Cr  0.98858168  0.95304551  0.19380829     1.93740
Cr1972     Cr  0.53959979  0.53312906  0.18942278     1.93210
Cr1973     Cr  0.95987626  0.00203389  0.19240897     1.39100
O1974       O  0.49523694  0.99430415  0.16819884    -1.22420
C1975       C  0.84828376  0.75144159  0.14580778    -0.04660
C1976       C  0.83858496  0.75776557  0.18504695    -0.01780
C1977       C  0.80128234  0.76163350  0.19367099     0.03210
C1978       C  0.77870797  0.76722835  0.16350722    -0.04660
C1979       C  0.77840464  0.74665364  0.12868051    -0.01770
C1980       C  0.81752331  0.74751433  0.11706682     0.03200
C1981       C  0.86471529  0.75852648  0.21700539     0.37850
C1982       C  0.73928395  0.72737426  0.10459593     0.37840
C1983       C  0.82472637  0.74200052  0.07637110     0.36270
C1984       C  0.78632895  0.76023243  0.23311242     0.36270
N1985       N  0.83083818  0.73675289  0.04420932    -0.38550
N1986       N  0.77495289  0.75654308  0.26523100    -0.38550
N1987       N  0.70788698  0.71174009  0.08546600    -0.38000
N1988       N  0.88591852  0.75652904  0.24127691    -0.38000
C1989       C  0.92258931  0.68617380  0.20978164    -0.04660
C1990       C  0.90960406  0.64253422  0.19926546    -0.01780
C1991       C  0.92164421  0.63895661  0.16129709     0.03210
C1992       C  0.96311176  0.67368955  0.14596896    -0.04660
C1993       C  0.98815276  0.71267869  0.16929075    -0.01770
C1994       C  0.96808860  0.71660230  0.20380636     0.03200
C1995       C  0.87113598  0.60435067  0.21740458     0.37850
C1996       C  0.53260119  0.74877713  0.15860942     0.37840
C1997       C  0.99001728  0.75506917  0.22839022     0.36270
C1998       C  0.88969806  0.60236096  0.13781955     0.36270
N1999       N  0.00747997  0.78566234  0.24828200    -0.38550
N2000       N  0.86392651  0.57250047  0.11996533    -0.38550
N2001       N  0.56768226  0.77847447  0.15024347    -0.38000
N2002       N  0.83928455  0.57369471  0.23024777    -0.38000
C2003       C  0.78882931  0.61517831  0.14457583    -0.04660
C2004       C  0.78695757  0.58981835  0.11192053    -0.01780
C2005       C  0.75531845  0.54470366  0.11148410     0.03210
C2006       C  0.72356876  0.52591637  0.14190423    -0.04660
C2007       C  0.72765201  0.55017783  0.17519822    -0.01770
C2008       C  0.75642168  0.59562345  0.17473466     0.03200
C2009       C  0.81486796  0.60907192  0.07742639     0.37850
C2010       C  0.70028037  0.52734687  0.20878571     0.37840
C2011       C  0.75112117  0.62265716  0.20368721     0.36270
C2012       C  0.75783342  0.51767486  0.08097956     0.36270
N2013       N  0.74832153  0.64558231  0.22612685    -0.38550
N2014       N  0.76198628  0.99763660  0.05637105    -0.38550
N2015       N  0.67757461  0.50626926  0.23434924    -0.38000
N2016       N  0.83498684  0.62343644  0.04873098    -0.38000
C2017       C  0.76422100  0.86872619  0.25685168    -0.04660
C2018       C  0.75013263  0.83412984  0.28525860    -0.01780
C2019       C  0.77308695  0.84272215  0.31987887     0.03210
C2020       C  0.81685567  0.87818068  0.32171355    -0.04660
C2021       C  0.82529658  0.91577587  0.29988172    -0.01770
C2022       C  0.80354738  0.90983351  0.26441205     0.03200
C2023       C  0.71482305  0.78845541  0.28008291     0.37850
C2024       C  0.85534469  0.95975464  0.31454892     0.37840
C2025       C  0.82152487  0.94544863  0.23598386     0.36270
C2026       C  0.74954949  0.81738539  0.35404280     0.36270
N2027       N  0.83475274  0.97318378  0.21268085    -0.38550
N2028       N  0.72634904  0.79609767  0.37939801    -0.38550
N2029       N  0.87930677  0.99474390  0.32659422    -0.38000
N2030       N  0.68878875  0.75097246  0.27750010    -0.38000
C2031       C  0.62124622  0.94536434  0.31335427    -0.04660
C2032       C  0.59609880  0.91870069  0.28255434    -0.01780
C2033       C  0.61730496  0.90839160  0.25320718     0.03210
C2034       C  0.65915409  0.91216949  0.26070934    -0.04660
C2035       C  0.67740110  0.92664771  0.29841193    -0.01770
C2036       C  0.65515059  0.93882174  0.32536030     0.03200
C2037       C  0.54797464  0.89666435  0.28485566     0.37850
C2038       C  0.71708516  0.92771322  0.31159412     0.37840
C2039       C  0.66059560  0.93667117  0.36626164     0.36270
C2040       C  0.59458542  0.89202683  0.21675869     0.36270
N2041       N  0.66324280  0.43150214  0.39900405    -0.38550
N2042       N  0.57542981  0.87752309  0.18835807    -0.38550
N2043       N  0.74845378  0.92935423  0.32404149    -0.38000
N2044       N  0.50943405  0.87837091  0.28794780    -0.38000
C2045       C  0.55107596  0.69543757  0.27556160    -0.04660
C2046       C  0.57876146  0.73059177  0.29936169    -0.01780
C2047       C  0.61423945  0.76905027  0.28247646     0.03210
C2048       C  0.62430039  0.77021242  0.24198293    -0.04660
C2049       C  0.60107084  0.73221818  0.21986021    -0.01770
C2050       C  0.56251285  0.69630587  0.23587385     0.03200
C2051       C  0.57091188  0.72685187  0.34090743     0.37850
C2052       C  0.61608936  0.73090362  0.18067557     0.37840
C2053       C  0.03144194  0.66217651  0.21108771     0.36270
C2054       C  0.64064074  0.80631639  0.30750674     0.36270
N2055       N  0.00289212  0.63342278  0.19462633    -0.38550
N2056       N  0.66061575  0.83404428  0.32959710    -0.38550
N2057       N  0.62930730  0.73040416  0.14979349    -0.38000
N2058       N  0.56540544  0.72356412  0.37414195    -0.38000
C2059       C  0.94416617  0.90710173  0.53311838    -0.04660
C2060       C  0.90455407  0.87017247  0.04523873    -0.01780
C2061       C  0.86968368  0.85025843  0.01925164     0.03210
C2062       C  0.87819655  0.86290403  0.47964646    -0.04660
C2063       C  0.92180724  0.89175691  0.46591749    -0.01770
C2064       C  0.95531298  0.91399725  0.49289573     0.03200
C2065       C  0.90206747  0.85326378  0.08370225     0.37850
C2066       C  0.93132474  0.89996359  0.42455518     0.37840
C2067       C  0.99966680  0.94638230  0.47906912     0.36270
C2068       C  0.82506725  0.81845324  0.03297447     0.36270
N2069       N  0.03464232  0.97150325  0.46612531    -0.38550
N2070       N  0.78850840  0.79301199  0.04204106    -0.38550
N2071       N  0.93855426  0.90607498  0.39156341    -0.38000
N2072       N  0.90363085  0.84055596  0.11410172    -0.38000
C2073       C  0.47692254  0.54728632  0.50972587    -0.04660
C2074       C  0.45413233  0.56620533  0.02709078    -0.01780
C2075       C  0.45775387  0.60379310  0.01015232     0.03210
C2076       C  0.48168075  0.61970622  0.47491221    -0.04660
C2077       C  0.99672121  0.59579031  0.45404202    -0.01770
C2078       C  0.99322207  0.55846261  0.47111197     0.03200
C2079       C  0.42543905  0.54509557  0.06082078     0.37850
C2080       C  0.01486611  0.60921928  0.41475316     0.37840
C2081       C  0.99931037  0.52921372  0.44598214     0.36270
C2082       C  0.43883415  0.62721982  0.02913576     0.36270
N2083       N  0.00263887  0.50879061  0.42128436    -0.38550
N2084       N  0.42496352  0.64731331  0.04381087    -0.38550
N2085       N  0.02895358  0.61954414  0.38341877    -0.38000
N2086       N  0.40224816  0.52573906  0.08696808    -0.38000
C2087       C  0.57980895  0.50354564  0.55728498    -0.04660
C2088       C  0.57838417  0.96861101  0.53571289    -0.01780
C2089       C  0.61141033  0.97879143  0.50798150     0.03210
C2090       C  0.65294844  0.51933592  0.51047679    -0.04660
C2091       C  0.65811587  0.55185571  0.53696884    -0.01770
C2092       C  0.62077682  0.54469747  0.05936204     0.03200
C2093       C  0.54333959  0.92213487  0.53923455     0.37850
C2094       C  0.70110445  0.59258990  0.04044432     0.37840
C2095       C  0.62486371  0.57928084  0.08471879     0.36270
C2096       C  0.60298093  0.94690578  0.47729042     0.36270
N2097       N  0.62977738  0.60767422  0.10482700    -0.38550
N2098       N  0.59465079  0.92095282  0.45329760    -0.38550
N2099       N  0.73527735  0.62523043  0.04312435    -0.38000
N2100       N  0.51684231  0.88462786  0.54101018    -0.38000
C2101       C  0.48556200  0.51842925  0.53328955     0.03800
C2102       C  0.52923425  0.53123476  0.04400595    -0.12350
C2103       C  0.53673191  0.50126978  0.06464517     0.01300
C2104       C  0.99918251  0.96113615  0.07701485    -0.10870
C2105       C  0.95964146  0.94601910  0.55756810     0.03790
C2106       C  0.94959322  0.97630347  0.54293740    -0.10290
H2107       H  0.55707011  0.56214447  0.03281593     0.09390
H2108       H  0.00374784  0.93670247  0.09133335     0.06920
H2109       H  0.91718693  0.96459412  0.53010029     0.06770
C2110       C  0.67420080  0.88753280  0.73568027     0.03800
C2111       C  0.64185982  0.84375020  0.72784172    -0.12350
C2112       C  0.65406639  0.81262386  0.72237278     0.01300
C2113       C  0.69863277  0.82590792  0.71473384    -0.10870
C2114       C  0.73111578  0.86721099  0.72870761     0.03790
C2115       C  0.71944380  0.90009238  0.73248567    -0.10290
H2116       H  0.60708402  0.83108494  0.73578595     0.09390
H2117       H  0.70719124  0.80079825  0.70977982     0.06920
H2118       H  0.74381493  0.93315117  0.74144571     0.06770
C2119       C  0.89310039  0.69939893  0.69073050     0.03800
C2120       C  0.84778345  0.66721297  0.68866741    -0.12350
C2121       C  0.82886113  0.65819489  0.65194792     0.01300
C2122       C  0.85121733  0.69016837  0.62317273    -0.10870
C2123       C  0.87827069  0.73330383  0.63632018     0.03790
C2124       C  0.90882653  0.73548440  0.66380745    -0.10290
H2125       H  0.83173834  0.64433114  0.71249611     0.09390
H2126       H  0.83745928  0.68432144  0.59491301     0.06920
H2127       H  0.94210299  0.76451038  0.66504191     0.06770
C2128       C  0.80247304  0.76572485  0.92610747     0.03800
C2129       C  0.84238337  0.80410841  0.93441624    -0.12350
C2130       C  0.84263111  0.83911493  0.95237887     0.01300
C2131       C  0.80395862  0.84055927  0.95707862    -0.10870
C2132       C  0.76249329  0.80160659  0.95433672     0.03790
C2133       C  0.76145298  0.76312086  0.93836050    -0.10290
H2134       H  0.87403229  0.80545401  0.93076435     0.09390
H2135       H  0.80677427  0.86927527  0.97142126     0.06920
H2136       H  0.72979036  0.73238474  0.93540320     0.06770
C2137       C  0.86977620  0.80682693  0.80632253     0.03800
C2138       C  0.90660311  0.83854453  0.78251297    -0.12350
C2139       C  0.91564331  0.88249703  0.77741652     0.01300
C2140       C  0.89306907  0.89626349  0.80100191    -0.10870
C2141       C  0.85213642  0.86557460  0.81875116     0.03790
C2142       C  0.84204275  0.82101031  0.82326739    -0.10290
H2143       H  0.92805964  0.82944343  0.76766901     0.09390
H2144       H  0.90438872  0.93097397  0.79993927     0.06920
H2145       H  0.81236627  0.79708704  0.83931578     0.06770
C2146       C  0.78042286  0.85528348  0.60601848     0.03800
C2147       C  0.76245305  0.81925803  0.63139639    -0.12350
C2148       C  0.78950991  0.81327958  0.65663795     0.01300
C2149       C  0.83322914  0.84876594  0.66339978    -0.10870
C2150       C  0.85254482  0.88807207  0.64177548     0.03790
C2151       C  0.82559912  0.89145914  0.61229571    -0.10290
H2152       H  0.72819656  0.79237293  0.62795293     0.09390
H2153       H  0.85387659  0.84487284  0.68417894     0.06920
H2154       H  0.83987095  0.92067731  0.59394605     0.06770
C2155       C  0.73867511  0.54083002  0.93336236     0.03800
C2156       C  0.73989614  0.00078324  0.93907606    -0.12350
C2157       C  0.71373560  0.97052379  0.97009542     0.01300
C2158       C  0.69544529  0.98544993  0.99735298    -0.10870
C2159       C  0.69105625  0.52134408  0.99045578     0.03790
C2160       C  0.71155953  0.54864242  0.95847176    -0.10290
H2161       H  0.75910973  0.99276434  0.91931455     0.09390
H2162       H  0.67865529  0.96533254  0.02281297     0.06920
H2163       H  0.70622429  0.57588567  0.95338537     0.06770
C2164       C  0.52133426  0.62021102  0.61357601     0.03800
C2165       C  0.48289839  0.62264608  0.61633249    -0.12350
C2166       C  0.48499707  0.66296897  0.61408084     0.01300
C2167       C  0.51789286  0.69588163  0.59098157    -0.10870
C2168       C  0.55645556  0.69508324  0.58095749     0.03790
C2169       C  0.55967370  0.65765375  0.59465044    -0.10290
H2170       H  0.45430150  0.59580552  0.63050074     0.09390
H2171       H  0.51546389  0.72474489  0.58518449     0.06920
H2172       H  0.59084766  0.65822020  0.59129386     0.06770
C2173       C  0.63340196  0.92040440  0.60156265     0.03800
C2174       C  0.67309605  0.95047271  0.61914889    -0.12350
C2175       C  0.67894387  0.98957822  0.63301897     0.01300
C2176       C  0.64306024  0.99632202  0.63636457    -0.10870
C2177       C  0.59947288  0.96220933  0.63049533     0.03790
C2178       C  0.59422392  0.92312953  0.61134466    -0.10290
H2179       H  0.70161358  0.94602945  0.61826158     0.09390
H2180       H  0.64941808  0.02813951  0.64653544     0.06920
H2181       H  0.56128446  0.89610785  0.60440257     0.06770
O2182       O  0.58342862  0.76648794  0.54891430    -0.84680
O2183       O  0.60645389  0.85731405  0.55770984    -0.81720
C2184       C  0.63929634  0.89200851  0.57175245     0.98790
O2185       O  0.67975459  0.90406830  0.55985904    -0.81760
O2186       O  0.74871648  0.88405455  0.56172505    -0.84400
C2187       C  0.74993998  0.85075328  0.57337421     1.03310
O2188       O  0.72223010  0.81206954  0.55888802    -0.77160
O2189       O  0.63038057  0.74210057  0.55233525    -0.77350
C2190       C  0.59207487  0.73637511  0.55988071     1.03260
O2191       O  0.57613873  0.81063385  0.48400328    -0.84670
O2192       O  0.66436406  0.89110520  0.48723854    -0.81740
C2193       C  0.70612084  0.92561016  0.98100595     0.98810
O2194       O  0.73961739  0.92532973  0.49458997    -0.81760
O2195       O  0.72889925  0.84032533  0.48617011    -0.84370
C2196       C  0.72459781  0.80188700  0.97576638     1.03280
O2197       O  0.69150628  0.76515796  0.48806709    -0.77190
O2198       O  0.61369630  0.77348163  0.48013604    -0.77340
C2199       C  0.57932972  0.77842960  0.97067402     1.03240
Cr2200     Cr  0.62318982  0.82622548  0.51848984     1.93740
Cr2201     Cr  0.70280681  0.87305527  0.52309785     1.93210
Cr2202     Cr  0.67070857  0.79447134  0.51972281     1.39100
O2203       O  0.66297444  0.82903405  0.54394092    -1.22420
C2204       C  0.96206122  0.69908949  0.92233626     0.03800
C2205       C  0.95672944  0.66027585  0.93742033    -0.12350
C2206       C  0.48975766  0.66073773  0.95876667     0.01300
C2207       C  0.53035274  0.69889548  0.96492555    -0.10870
C2208       C  0.53817200  0.73989828  0.95275092     0.03790
C2209       C  0.50281528  0.74038462  0.93150663    -0.10290
H2210       H  0.92618555  0.62864653  0.93314061     0.09390
H2211       H  0.55469472  0.69629701  0.98204541     0.06920
H2212       H  0.50703988  0.77161871  0.92218550     0.06770
C2213       C  0.69101901  0.57010401  0.80106424     0.03800
C2214       C  0.67591215  0.52815796  0.81743802    -0.12350
C2215       C  0.63169291  0.49222154  0.81203324     0.01300
C2216       C  0.60098976  0.50029367  0.79398682    -0.10870
C2217       C  0.61535180  0.53745176  0.77071364     0.03790
C2218       C  0.66013613  0.57445089  0.77663650    -0.10290
H2219       H  0.69940732  0.52332558  0.83357865     0.09390
H2220       H  0.56627261  0.47434492  0.79297830     0.06920
H2221       H  0.67082692  0.60552539  0.76203292     0.06770
C2222       C  0.92835335  0.62813598  0.79373958     0.03800
C2223       C  0.97232390  0.66365862  0.79720001    -0.12350
C2224       C  0.00883430  0.65785109  0.79062055     0.01300
C2225       C  0.00262213  0.61610457  0.78383002    -0.10870
C2226       C  0.96208469  0.58312053  0.76951760     0.03790
C2227       C  0.92345836  0.58727038  0.77824604    -0.10290
H2228       H  0.97850321  0.69640996  0.80372920     0.09390
H2229       H  0.03222187  0.61381924  0.77919776     0.06920
H2230       H  0.89051227  0.55960486  0.77218726     0.06770
O2231       O  0.75317377  0.60377351  0.89253393    -0.84680
O2232       O  0.77427296  0.69415672  0.89630649    -0.81720
C2233       C  0.80779272  0.73152914  0.90461015     0.98790
O2234       O  0.84740687  0.74174390  0.89201661    -0.81760
O2235       O  0.91836841  0.72425400  0.88953792    -0.84400
C2236       C  0.92317719  0.69218121  0.89822880     1.03310
O2237       O  0.89369318  0.65260721  0.88633033    -0.77250
O2238       O  0.80209607  0.58147059  0.89053757    -0.77350
C2239       C  0.76545144  0.57632320  0.90341682     1.03260
O2240       O  0.73599667  0.64211566  0.82797889    -0.84670
O2241       O  0.82261397  0.72572077  0.82458881    -0.81740
C2242       C  0.86315618  0.76166632  0.81732620     0.98810
O2243       O  0.89875163  0.76091070  0.82432274    -0.81760
O2244       O  0.89576675  0.67439985  0.81749952    -0.84370
C2245       C  0.89006912  0.63426004  0.80950846     1.03280
O2246       O  0.85412518  0.59922320  0.82072699    -0.77190
O2247       O  0.77122698  0.60311361  0.82103714    -0.77340
C2248       C  0.73598320  0.60808334  0.81508747     1.03240
Cr2249     Cr  0.78747893  0.66105144  0.85737896     1.93740
Cr2250     Cr  0.86840864  0.70899567  0.85439907     1.93210
Cr2251     Cr  0.83580275  0.63026943  0.85314865     1.39100
O2252       O  0.83101930  0.66617853  0.87823361    -1.22420
O2253       O  0.92969260  0.91408629  0.66268979    -0.84680
O2254       O  0.52588505  0.93867864  0.65912168    -0.81720
C2255       C  0.56407994  0.47052704  0.64825318     0.98790
O2256       O  0.57437153  0.51089720  0.65594485    -0.81760
O2257       O  0.55145903  0.58049180  0.64967774    -0.84400
C2258       C  0.51762112  0.58200083  0.63858525     1.03310
O2259       O  0.97847504  0.55264419  0.65291875    -0.77160
O2260       O  0.90724559  0.96231590  0.66053748    -0.77350
C2261       C  0.89953484  0.92372209  0.65364122     1.03260
O2262       O  0.97144027  0.90550065  0.72730623    -0.84670
O2263       O  0.54804626  0.99285590  0.73054531    -0.81740
C2264       C  0.58339464  0.03282388  0.73877696     0.98810
O2265       O  0.59119237  0.56698465  0.71937115    -0.81760
O2266       O  0.50424055  0.55663547  0.72857897    -0.84370
C2267       C  0.46479575  0.55152369  0.74009894     1.03280
O2268       O  0.92907377  0.52204943  0.72418754    -0.77190
O2269       O  0.93947738  0.94742577  0.73470768    -0.77340
C2270       C  0.94422799  0.91359255  0.74527223     1.03240
Cr2271     Cr  0.98858265  0.95305367  0.69381689     1.93740
Cr2272     Cr  0.53959923  0.53313149  0.68942582     1.93210
Cr2273     Cr  0.95987892  0.00204337  0.69242004     1.39100
O2274       O  0.49523754  0.99431314  0.66820950    -1.22420
C2275       C  0.84827769  0.75144593  0.64581291    -0.04660
C2276       C  0.83858111  0.75777253  0.68505198    -0.01780
C2277       C  0.80127968  0.76164203  0.69367684     0.03210
C2278       C  0.77870521  0.76723761  0.66351372    -0.04660
C2279       C  0.77839806  0.74665949  0.62868795    -0.01770
C2280       C  0.81751419  0.74751530  0.61707334     0.03200
C2281       C  0.86471220  0.75853426  0.71700982     0.37850
C2282       C  0.73927615  0.72738166  0.60460485     0.37840
C2283       C  0.82471204  0.74199610  0.57637772     0.36270
C2284       C  0.78632415  0.76023569  0.73311837     0.36270
N2285       N  0.83081900  0.73674443  0.54421573    -0.38550
N2286       N  0.77494652  0.75654094  0.76523689    -0.38550
N2287       N  0.70787866  0.71174941  0.58547562    -0.38000
N2288       N  0.88591675  0.75653756  0.74128041    -0.38000
C2289       C  0.92259059  0.68619379  0.70979705    -0.04660
C2290       C  0.90961295  0.64255484  0.69928616    -0.01780
C2291       C  0.92165596  0.63897783  0.66131896     0.03210
C2292       C  0.96312367  0.67371135  0.64599239    -0.04660
C2293       C  0.98816013  0.71270183  0.66931315    -0.01770
C2294       C  0.96808995  0.71662566  0.70382494     0.03200
C2295       C  0.87114404  0.60436961  0.71742273     0.37850
C2296       C  0.53260931  0.74880133  0.65863650     0.37840
C2297       C  0.99001269  0.75509394  0.72840747     0.36270
C2298       C  0.88970596  0.60238947  0.63783774     0.36270
N2299       N  0.00747052  0.78568823  0.74829841    -0.38550
N2300       N  0.86392512  0.57253526  0.61998329    -0.38550
N2301       N  0.56769032  0.77849902  0.65027093    -0.38000
N2302       N  0.83929181  0.57371190  0.73026275    -0.38000
C2303       C  0.78883391  0.61518648  0.64457188    -0.04660
C2304       C  0.78695644  0.58983247  0.61190976    -0.01780
C2305       C  0.75530493  0.54472133  0.61146231     0.03210
C2306       C  0.72355982  0.52592932  0.64188558    -0.04660
C2307       C  0.72764703  0.55018439  0.67518559    -0.01770
C2308       C  0.75642360  0.59562911  0.67472889     0.03200
C2309       C  0.81487810  0.60908831  0.57742150     0.37850
C2310       C  0.70027271  0.52735135  0.70877261     0.37840
C2311       C  0.75112520  0.62266025  0.70368566     0.36270
C2312       C  0.75779267  0.51770119  0.58093457     0.36270
N2313       N  0.74832821  0.64558392  0.72612874    -0.38550
N2314       N  0.76196279  0.99764241  0.55636270    -0.38550
N2315       N  0.67756720  0.50627860  0.73433867    -0.38000
N2316       N  0.83500807  0.62345348  0.54873099    -0.38000
C2317       C  0.76421106  0.86872858  0.75684340    -0.04660
C2318       C  0.75012221  0.83412882  0.78524691    -0.01780
C2319       C  0.77307606  0.84271609  0.81986720     0.03210
C2320       C  0.81684418  0.87817578  0.82170523    -0.04660
C2321       C  0.82528721  0.91577275  0.79987495    -0.01770
C2322       C  0.80353814  0.90983424  0.76440591     0.03200
C2323       C  0.71481424  0.78845469  0.78006589     0.37850
C2324       C  0.85533395  0.95975036  0.81454527     0.37840
C2325       C  0.82151794  0.94545180  0.73597993     0.36270
C2326       C  0.74954216  0.81736431  0.85402628     0.36270
N2327       N  0.83474961  0.97318971  0.71267923    -0.38550
N2328       N  0.72634544  0.79606257  0.87937768    -0.38550
N2329       N  0.87929505  0.99473855  0.82659309    -0.38000
N2330       N  0.68878134  0.75097186  0.77747886    -0.38000
C2331       C  0.62124448  0.94536978  0.81336519    -0.04660
C2332       C  0.59609330  0.91870495  0.78256726    -0.01780
C2333       C  0.61729622  0.90839584  0.75321706     0.03210
C2334       C  0.65914706  0.91217506  0.76071416    -0.04660
C2335       C  0.67739873  0.92665440  0.79841518    -0.01770
C2336       C  0.65515066  0.93882777  0.82536681     0.03200
C2337       C  0.54796955  0.89667030  0.78487241     0.37850
C2338       C  0.71708571  0.92772262  0.81159260     0.37840
C2339       C  0.66060114  0.93667829  0.86626722     0.36270
C2340       C  0.59457445  0.89203484  0.71676892     0.36270
N2341       N  0.66327350  0.43145480  0.89900585    -0.38550
N2342       N  0.57541800  0.87753563  0.68836786    -0.38550
N2343       N  0.74845672  0.92936584  0.82403670    -0.38000
N2344       N  0.50942944  0.87837926  0.78796834    -0.38000
C2345       C  0.55107879  0.69544270  0.77556817    -0.04660
C2346       C  0.57876263  0.73060163  0.79936485    -0.01780
C2347       C  0.61423728  0.76906028  0.78247637     0.03210
C2348       C  0.62429432  0.77022057  0.74198224    -0.04660
C2349       C  0.60106789  0.73222316  0.71986308    -0.01770
C2350       C  0.56251414  0.69630927  0.73588030     0.03200
C2351       C  0.57091460  0.72686798  0.84091046     0.37850
C2352       C  0.61608584  0.73090613  0.68067882     0.37840
C2353       C  0.03144299  0.66217850  0.71109510     0.36270
C2354       C  0.64064161  0.80632746  0.80750466     0.36270
N2355       N  0.00289157  0.63341991  0.69463973    -0.38550
N2356       N  0.66061936  0.83405530  0.82959429    -0.38550
N2357       N  0.62930410  0.73040502  0.64979731    -0.38000
N2358       N  0.56541129  0.72358856  0.87414533    -0.38000
C2359       C  0.94416323  0.90709998  0.03310542    -0.04660
C2360       C  0.90455934  0.87017218  0.54525315    -0.01780
C2361       C  0.86968921  0.85025497  0.51926661     0.03210
C2362       C  0.87819004  0.86291555  0.97963280    -0.04660
C2363       C  0.92180035  0.89177170  0.96590478    -0.01770
C2364       C  0.95530908  0.91399700  0.99288321     0.03200
C2365       C  0.90207234  0.85326746  0.58371850     0.37850
C2366       C  0.93131585  0.89999581  0.92454383     0.37840
C2367       C  0.99966955  0.94636420  0.97905852     0.36270
C2368       C  0.82507133  0.81845753  0.53299127     0.36270
N2369       N  0.03465208  0.97146666  0.96611644    -0.38550
N2370       N  0.78851063  0.79302273  0.54205783    -0.38550
N2371       N  0.93854478  0.90612325  0.89155331    -0.38000
N2372       N  0.90363463  0.84056201  0.61411939    -0.38000
C2373       C  0.47704178  0.54734275  0.00971096    -0.04660
C2374       C  0.45408327  0.56620715  0.52712678    -0.01780
C2375       C  0.45774445  0.60381378  0.51018855     0.03210
C2376       C  0.48169631  0.61970931  0.97488322    -0.04660
C2377       C  0.99681033  0.59584766  0.95402844    -0.01770
C2378       C  0.99339844  0.55856628  0.97111477     0.03200
C2379       C  0.42540286  0.54511929  0.56086662     0.37850
C2380       C  0.01496530  0.60929967  0.91474436     0.37840
C2381       C  0.99973928  0.52944763  0.94602501     0.36270
C2382       C  0.43885919  0.62727268  0.52917021     0.36270
N2383       N  0.00328772  0.50914880  0.92133571    -0.38550
N2384       N  0.42501196  0.64738937  0.54383997    -0.38550
N2385       N  0.02905918  0.61963923  0.88341330    -0.38000
N2386       N  0.40222191  0.52576876  0.58702058    -0.38000
C2387       C  0.57984586  0.50352840  0.05730251    -0.04660
C2388       C  0.57838691  0.96860276  0.03572601    -0.01780
C2389       C  0.61142197  0.97877967  0.00800441     0.03210
C2390       C  0.65301645  0.51934042  0.01052911    -0.04660
C2391       C  0.65816121  0.55185463  0.03701613    -0.01770
C2392       C  0.62074253  0.54471324  0.55932544     0.03200
C2393       C  0.54333716  0.92212780  0.03924375     0.37850
C2394       C  0.70107042  0.59257843  0.54039407     0.37840
C2395       C  0.62484588  0.57930296  0.58468202     0.36270
C2396       C  0.60300160  0.94688764  0.97732139     0.36270
N2397       N  0.62977033  0.60769862  0.60479234    -0.38550
N2398       N  0.59467782  0.92092865  0.95333550    -0.38550
N2399       N  0.73525354  0.62520812  0.54307203    -0.38000
N2400       N  0.51683579  0.88462181  0.04101715    -0.38000
loop_ 
_geom_bond_atom_site_label_1 
_geom_bond_atom_site_label_2 
_geom_bond_distance 
_geom_bond_site_symmetry_2 
_ccdc_geom_bond_type 
C1          C302   1.402   1_655  A
C1         C1806   1.382   1_545  A
C1          C573   1.455       .  S
C2            C3   1.410       .  A
C2          C301   1.402   1_455  A
C2            H7   1.083       .  S
C3         C1804   1.399   1_445  A
C3          C287   1.481       .  S
C4         C1803   1.399       .  A
C4          C305   1.382       .  A
C4            H8   1.077       .  S
C5            C6   1.384       .  A
C5          C304   1.382       .  A
C5          C559   1.461       .  S
C6         C1801   1.382       .  A
C6            H9   1.086       .  S
C10          C11   1.392       .  A
C10          C15   1.403       .  A
C10         C234   1.492       .  S
C11          C12   1.379       .  A
C11          H16   1.083       .  S
C12          C13   1.391       .  A
C12         C248   1.465       .  S
C13          C14   1.396       .  A
C13          H17   1.083       .  S
C14          C15   1.419       .  A
C14         C217   1.502       .  S
C15          H18   1.078       .  S
C19          C20   1.393       .  A
C19          C24   1.431       .  A
C19         C189   1.493       .  S
C20          C21   1.398       .  A
C20          H25   1.076       .  S
C21          C22   1.390       .  A
C21         C203   1.462       .  S
C22          C23   1.393       .  A
C22          H26   1.066       .  S
C23          C24   1.412       .  A
C23         C175   1.513       .  S
C24          H27   1.082       .  S
C28          C29   1.385       .  A
C28          C33   1.440       .  A
C28         C133   1.504       .  S
C29          C30   1.377       .  A
C29          H34   1.085       .  S
C30          C31   1.382       .  A
C30         C262   1.446       .  S
C31          C32   1.392       .  A
C31          H35   1.085       .  S
C32          C33   1.447       .  A
C32          C96   1.506       .  S
C33          H36   1.082       .  S
C37          C38   1.433       .  A
C37          C42   1.416       .  A
C37         C142   1.534       .  S
C38          C39   1.424       .  A
C38          H43   1.076       .  S
C39          C40   1.373       .  A
C39         C170   1.503       .  S
C40          C41   1.399       .  A
C40          H44   1.075       .  S
C41          C42   1.430       .  A
C41         C220   1.511       .  S
C42          H45   1.080       .  S
C46          C47   1.391       .  A
C46          C51   1.446       .  A
C46          C87   1.514       .  S
C47          C48   1.389       .  A
C47          H52   1.083       .  S
C48          C49   1.409       .  A
C48         C178   1.483       .  S
C49          C50   1.397       .  A
C49          H53   1.083       .  S
C50          C51   1.443       .  A
C50         C161   1.525       .  S
C51          H54   1.082       .  S
C55          C60   1.399       .  A
C55         C656   1.452       .  A
C55         C139   1.506       .  S
C56          C57   1.441       .  A
C56         C655   1.452       .  A
C56          H61   1.082       .  S
C57          C58   1.375       .  A
C57          C93   1.512       .  S
C58         C659   1.382       .  A
C58          H62   1.082       .  S
C59          C60   1.385       .  A
C59         C658   1.382   1_545  A
C59         C290   1.453       .  S
C60          H63   1.084       .  S
C64          C65   1.388   1_455  A
C64          C69   1.450       .  A
C64         C158   1.548       .  S
C65          C66   1.388       .  A
C65          H70   1.066       .  S
C66          C67   1.375   1_655  A
C66        C1392   1.484       .  S
C67          C68   1.396       .  A
C67          H71   1.084       .  S
C68          C69   1.461       .  A
C68          C90   1.514       .  S
C69          H72   1.081       .  S
C73          C74   1.385       .  A
C73          C78   1.451       .  A
C73          C84   1.517       .  S
C74          C75   1.372       .  A
C74          H79   1.083       .  S
C75          C76   1.392       .  A
C75         C806   1.454       .  S
C76          C77   1.385       .  A
C76          H80   1.084       .  S
C77          C78   1.452       .  A
C77         C755   1.528       .  S
C78          H81   1.078       .  S
O82        Cr100   2.098       .  S
O82          C90   1.303       .  A
O83        Cr100   1.999       .  S
O83          C84   1.270       .  A
C84          O85   1.303       .  A
O85        Cr101   2.077       .  S
O86        Cr101   1.981       .  S
O86          C87   1.264       .  A
C87          O88   1.303       .  A
O88        Cr102   2.091       .  S
O89        Cr102   1.979       .  S
O89          C90   1.265       .  A
O91        Cr100   1.884   1_556  S
O91         C399   1.281       .  A
O92        Cr100   2.241   1_556  S
O92         C393   1.343       .  A
C93         O392   1.343       .  A
C93         O394   1.271       .  A
O94        Cr101   1.878   1_556  S
O94         C393   1.271       .  A
O95        Cr101   2.194   1_556  S
O95         C396   1.333       .  A
C96         O395   1.333       .  A
C96         O397   1.276       .  A
O97        Cr102   1.878   1_556  S
O97         C396   1.276       .  A
O98        Cr102   2.223   1_556  S
O98         C399   1.343       .  A
C99         C108   1.517       .  S
C99         O391   1.281       .  A
C99         O398   1.343       .  A
Cr100       O103   1.615       .  S
Cr101       O103   1.610       .  S
Cr102       O103   1.607       .  S
C104        C105   1.384       .  A
C104       C1309   1.454       .  A
C104        C136   1.513       .  S
C105       C1306   1.372       .  A
C105        H110   1.085       .  S
C106        C107   1.378   1_655  A
C106       C1305   1.372       .  A
C106        C276   1.435       .  S
C107        C108   1.390       .  A
C107        H111   1.085       .  S
C108        C109   1.454       .  A
C109       C1304   1.454   1_455  A
C109        H112   1.082       .  S
C113        C114   1.404       .  A
C113        C118   1.449       .  A
C113        C148   1.530       .  S
C114        C115   1.417   1_545  A
C114        H119   1.083       .  S
C115        C116   1.398   1_565  A
C115        C831   1.499       .  S
C116        C117   1.387       .  A
C116        H120   1.077   1_545  S
C117        C118   1.445       .  A
C117        C764   1.529       .  S
C118        H121   1.080       .  S
C122        C123   1.398       .  A
C122        C127   1.462       .  A
C122        C145   1.547       .  S
C123        C124   1.404       .  A
C123        H128   1.084       .  S
C124        C125   1.393       .  A
C124       C1445   1.467       .  S
C125        C126   1.385       .  A
C125        H129   1.085       .  S
C126        C127   1.454       .  A
C126       C1367   1.543       .  S
C127        H130   1.079       .  S
O131       Cr149   2.107       .  S
O131        C139   1.303       .  A
O132       Cr149   1.976       .  S
O132        C133   1.267       .  A
C133        O134   1.300       .  A
O134       Cr150   2.094       .  S
O135       Cr150   1.975       .  S
O135        C136   1.264       .  A
C136        O137   1.305       .  A
O137       Cr151   2.108       .  S
O138       Cr151   1.967       .  S
O138        C139   1.266       .  A
O140       Cr149   1.878       .  S
O140        C148   1.279       .  A
O141       Cr149   2.247       .  S
O141        C142   1.343       .  A
C142        O143   1.283       .  A
O143       Cr150   1.874       .  S
O144       Cr150   2.274       .  S
O144        C145   1.352       .  A
C145        O146   1.277       .  A
O146       Cr151   1.883       .  S
O147       Cr151   2.253       .  S
O147        C148   1.347       .  A
Cr149       O152   1.616       .  S
Cr150       O152   1.608       .  S
Cr151       O152   1.609       .  S
O153       Cr171   2.101       .  S
O153        C161   1.304       .  A
O154      Cr1371   2.000   1_455  S
O154        C755   1.271       .  A
C155        C677   1.528       .  S
C155        O156   1.304   1_565  A
C155        O754   1.271       .  A
O156       Cr172   2.084       .  S
O157       Cr172   2.029       .  S
O157        C158   1.274       .  A
C158       O1359   1.302   1_455  A
O159       Cr773   2.060       .  S
O159       C1358   1.302       .  A
O160       Cr173   1.988       .  S
O160        C161   1.266       .  A
O162       Cr171   1.858       .  S
O162        C170   1.274       .  A
O163      Cr1371   2.226   1_455  S
O163        C164   1.342       .  A
C164        C717   1.529       .  S
C164        O765   1.280       .  A
O165       Cr172   1.890       .  S
O165        C764   1.280       .  A
O166       Cr172   2.240       .  S
O166        C167   1.344   1_455  A
C167       C1326   1.543       .  S
C167       O1368   1.272       .  A
O168       Cr773   1.897       .  S
O168       C1367   1.272       .  A
O169       Cr173   2.214       .  S
O169        C170   1.339       .  A
Cr171      O1354   2.000       .  S
Cr171      O1363   2.226       .  S
Cr171      O1374   1.613       .  S
Cr172       O774   1.629   1_445  S
Cr173       O759   2.060       .  S
Cr173       O768   1.897       .  S
Cr173      O1374   1.612       .  S
O174      Cr1371   1.613       .  S
O174       Cr772   1.629   1_655  S
O174      Cr1373   1.612       .  S
C175        C176   1.434       .  A
C175        C180   1.428       .  A
C176        C177   1.403       .  A
C176        C181   1.435       .  S
C177        C178   1.391       .  A
C177        C184   1.440       .  S
C178        C179   1.399       .  A
C179        C180   1.399       .  A
C179        C182   1.447       .  S
C180        C183   1.452       .  S
C181        N188   1.153       .  T
C182        N187   1.157       .  T
C183        N185   1.158       .  T
C184        N186   1.154       .  T
C189        C190   1.410       .  A
C189        C194   1.393       .  A
C190        C191   1.393       .  A
C190        C195   1.452       .  S
C191        C192   1.419       .  A
C191        C198   1.451       .  S
C192        C193   1.442       .  A
C192       C1266   1.484       .  S
C193        C194   1.412       .  A
C193       C1396   1.449       .  S
C194        C197   1.446       .  S
C195        N202   1.158       .  T
C196       C1393   1.449   1_455  S
C196        N201   1.158       .  T
C197        N199   1.157       .  T
C198        N200   1.156       .  T
C203        C204   1.418       .  A
C203        C208   1.410       .  A
C204        C205   1.391       .  A
C204        C209   1.449       .  S
C205        C206   1.402       .  A
C205        C212   1.450       .  S
C206        C207   1.395       .  A
C206        C675   1.453   1_545  S
C207        C208   1.383       .  A
C207        C210   1.439       .  S
C208        C211   1.453       .  S
C209        N216   1.156       .  T
C210        N215   1.151       .  T
C211        N213   1.157       .  T
C212        N814   1.156   1_545  T
N214        C812   1.156       .  T
C217        C218   1.435       .  A
C217        C222   1.416       .  A
C218        C219   1.394       .  A
C218        C223   1.449       .  S
C219        C220   1.388       .  A
C219        C226   1.439       .  S
C220        C221   1.416       .  A
C221        C222   1.409       .  A
C221        C224   1.448       .  S
C222        C225   1.449       .  S
C223        N230   1.158       .  T
C224        N229   1.157       .  T
C225        N227   1.157       .  T
C226        N228   1.154       .  T
C231        C232   1.400       .  A
C231        C236   1.387       .  A
C231        C715   1.499       .  S
C232        C233   1.397       .  A
C232        C237   1.440       .  S
C233        C234   1.424       .  A
C233        C240   1.450       .  S
C234        C235   1.431       .  A
C235        C236   1.402       .  A
C235        C238   1.447       .  S
C236        C239   1.435       .  S
C237        N244   1.154       .  T
C238        N243   1.156       .  T
C239        N841   1.152       .  T
C240        N242   1.156       .  T
N241        C839   1.153       .  T
C245        C246   1.390       .  A
C245        C250   1.415       .  A
C245       C1324   1.467       .  S
C246        C247   1.397       .  A
C246        C251   1.448       .  S
C247        C248   1.429       .  A
C247        C254   1.447       .  S
C248        C249   1.389       .  A
C249        C250   1.390       .  A
C249        C252   1.450       .  S
C250       C1453   1.427       .  S
C251        N258   1.155       .  T
C252        N257   1.156       .  T
C253       C1450   1.427       .  S
C253        N255   1.147       .  T
C254        N256   1.155       .  T
C259        C264   1.420       .  A
C259        C560   1.378       .  A
C259        C305   1.461       .  S
C260        C261   1.390       .  A
C260        C559   1.378       .  A
C260        C265   1.439       .  S
C261        C562   1.417   1_554  A
C261        C268   1.440       .  S
C262        C263   1.395       .  A
C262        C561   1.417       .  A
C263        C264   1.391       .  A
C263        C266   1.454       .  S
C264        C267   1.439       .  S
C265        N272   1.155       .  T
C266        N271   1.157       .  T
C267        N269   1.155       .  T
C268        N270   1.154       .  T
C273        C574   1.402       .  A
C273       C1478   1.412       .  A
C273        C301   1.455       .  S
C274        C275   1.394       .  A
C274        C573   1.402       .  A
C274        C279   1.449       .  S
C275        C576   1.405   1_554  A
C275        C282   1.446       .  S
C276        C575   1.405       .  A
C276       C1477   1.395       .  A
C277        C278   1.389       .  A
C277       C1476   1.395       .  A
C277        C280   1.457       .  S
C278       C1473   1.412       .  A
C278        C281   1.441       .  S
C279        N286   1.157       .  T
C280        N285   1.157       .  T
C281        N283   1.157       .  T
C282        N284   1.156       .  T
C287        C888   1.422   1_545  A
C287        C592   1.418       .  A
C288        C289   1.379       .  A
C288        C887   1.421       .  A
C288        C293   1.456       .  S
C289        C890   1.405       .  A
C289        C296   1.462       .  S
C290        C291   1.404       .  A
C290        C889   1.404   1_545  A
C291        C592   1.407       .  A
C291        C594   1.450       .  S
C292        C587   1.418       .  A
C292        C591   1.407       .  A
C292        C295   1.447       .  S
C293        N300   1.158       .  T
C294        C591   1.450       .  S
C294        N299   1.157       .  T
C295        N297   1.156       .  T
C296        N298   1.157       .  T
C301       C2106   1.382   1_545  A
C302        C303   1.410       .  A
C302        H307   1.083       .  S
C303       C2104   1.399   1_445  A
C303        C587   1.481       .  S
C304       C2103   1.399       .  A
C304        H308   1.077       .  S
C305        C306   1.384       .  A
C306       C2101   1.382       .  A
C306        H309   1.086       .  S
C310        C311   1.392       .  A
C310        C315   1.403       .  A
C310        C534   1.492       .  S
C311        C312   1.379       .  A
C311        H316   1.083       .  S
C312        C313   1.391       .  A
C312        C548   1.465       .  S
C313        C314   1.396       .  A
C313        H317   1.083       .  S
C314        C315   1.419       .  A
C314        C517   1.502       .  S
C315        H318   1.078       .  S
C319        C320   1.393       .  A
C319        C324   1.431       .  A
C319        C489   1.493       .  S
C320        C321   1.398       .  A
C320        H325   1.076       .  S
C321        C322   1.390       .  A
C321        C503   1.462       .  S
C322        C323   1.393       .  A
C322        H326   1.066       .  S
C323        C324   1.412       .  A
C323        C475   1.513       .  S
C324        H327   1.082       .  S
C328        C329   1.385       .  A
C328        C333   1.440       .  A
C328        C433   1.504       .  S
C329        C330   1.377       .  A
C329        H334   1.085       .  S
C330        C331   1.382       .  A
C330        C562   1.446       .  S
C331        C332   1.392       .  A
C331        H335   1.085       .  S
C332        C333   1.447       .  A
C332        C396   1.506       .  S
C333        H336   1.082       .  S
C337        C338   1.433       .  A
C337        C342   1.416       .  A
C337        C442   1.534       .  S
C338        C339   1.424       .  A
C338        H343   1.076       .  S
C339        C340   1.373       .  A
C339        C470   1.503       .  S
C340        C341   1.399       .  A
C340        H344   1.075       .  S
C341        C342   1.430       .  A
C341        C520   1.511       .  S
C342        H345   1.080       .  S
C346        C347   1.391       .  A
C346        C351   1.446       .  A
C346        C387   1.514       .  S
C347        C348   1.389       .  A
C347        H352   1.083       .  S
C348        C349   1.409       .  A
C348        C478   1.483       .  S
C349        C350   1.397       .  A
C349        H353   1.083       .  S
C350        C351   1.443       .  A
C350        C461   1.525       .  S
C351        H354   1.082       .  S
C355        C956   1.452       .  A
C355        C360   1.399       .  A
C355        C439   1.506       .  S
C356        C955   1.452       .  A
C356        C357   1.441       .  A
C356        H361   1.082       .  S
C357        C358   1.375       .  A
C357        C393   1.512       .  S
C358        C959   1.382       .  A
C358        H362   1.082   1_556  S
C359        C958   1.382   1_545  A
C359        C360   1.385       .  A
C359        C590   1.453   1_556  S
C360        H363   1.084       .  S
C364        C365   1.388   1_455  A
C364        C369   1.450       .  A
C364        C458   1.548       .  S
C365        C366   1.388       .  A
C365        H370   1.066       .  S
C366        C367   1.375   1_655  A
C366       C1692   1.484       .  S
C367        C368   1.396       .  A
C367        H371   1.083       .  S
C368        C369   1.461       .  A
C368        C390   1.514       .  S
C369        H372   1.081       .  S
C373        C374   1.385       .  A
C373        C378   1.451       .  A
C373        C384   1.517       .  S
C374        C375   1.372       .  A
C374        H379   1.083       .  S
C375        C376   1.392       .  A
C375       C1106   1.454       .  S
C376        C377   1.385       .  A
C376        H380   1.084       .  S
C377        C378   1.452       .  A
C377       C1055   1.528       .  S
C378        H381   1.078       .  S
O382       Cr400   2.097       .  S
O382        C390   1.303       .  A
O383       Cr400   1.999       .  S
O383        C384   1.270       .  A
C384        O385   1.303       .  A
O385       Cr401   2.077       .  S
O386       Cr401   1.981       .  S
O386        C387   1.264       .  A
C387        O388   1.303       .  A
O388       Cr402   2.091       .  S
O389       Cr402   1.979       .  S
O389        C390   1.265       .  A
O391       Cr400   1.884       .  S
O392       Cr400   2.241       .  S
O394       Cr401   1.878       .  S
O395       Cr401   2.194       .  S
O397       Cr402   1.878       .  S
O398       Cr402   2.223       .  S
C399        C408   1.517       .  S
Cr400       O403   1.615       .  S
Cr401       O403   1.610       .  S
Cr402       O403   1.607       .  S
C404        C405   1.384       .  A
C404       C1609   1.454       .  A
C404        C436   1.513       .  S
C405       C1606   1.372       .  A
C405        H410   1.085       .  S
C406       C1605   1.372       .  A
C406        C407   1.378   1_655  A
C406        C576   1.435       .  S
C407        C408   1.390       .  A
C407        H411   1.085       .  S
C408        C409   1.454       .  A
C409       C1604   1.454   1_455  A
C409        H412   1.082       .  S
C413        C414   1.404       .  A
C413        C418   1.449       .  A
C413        C448   1.531       .  S
C414        C415   1.417   1_545  A
C414        H419   1.083       .  S
C415        C416   1.398   1_565  A
C415       C1131   1.499       .  S
C416        C417   1.387       .  A
C416        H420   1.077   1_545  S
C417        C418   1.445       .  A
C417       C1064   1.529       .  S
C418        H421   1.080       .  S
C422        C423   1.398       .  A
C422        C427   1.462       .  A
C422        C445   1.547       .  S
C423        C424   1.404       .  A
C423        H428   1.084       .  S
C424        C425   1.393       .  A
C424       C1745   1.467       .  S
C425        C426   1.385       .  A
C425        H429   1.085       .  S
C426        C427   1.454       .  A
C426       C1667   1.543       .  S
C427        H430   1.079       .  S
O431       Cr449   2.107       .  S
O431        C439   1.303       .  A
O432       Cr449   1.976       .  S
O432        C433   1.267       .  A
C433        O434   1.300       .  A
O434       Cr450   2.094       .  S
O435       Cr450   1.975       .  S
O435        C436   1.264       .  A
C436        O437   1.305       .  A
O437       Cr451   2.108       .  S
O438       Cr451   1.967       .  S
O438        C439   1.266       .  A
O440       Cr449   1.878       .  S
O440        C448   1.279       .  A
O441       Cr449   2.247       .  S
O441        C442   1.343       .  A
C442        O443   1.283       .  A
O443       Cr450   1.874       .  S
O444       Cr450   2.274       .  S
O444        C445   1.352       .  A
C445        O446   1.277       .  A
O446       Cr451   1.883       .  S
O447       Cr451   2.253       .  S
O447        C448   1.347       .  A
Cr449       O452   1.616       .  S
Cr450       O452   1.608       .  S
Cr451       O452   1.609       .  S
O453       Cr471   2.102       .  S
O453        C461   1.304       .  A
O454      Cr1671   2.000   1_455  S
O454       C1055   1.271       .  A
C455        C977   1.528       .  S
C455       O1054   1.271       .  A
C455        O456   1.304   1_565  A
O456       Cr472   2.084       .  S
O457       Cr472   2.029       .  S
O457        C458   1.274       .  A
C458       O1659   1.302   1_455  A
O459      Cr1073   2.060       .  S
O459       C1658   1.302       .  A
O460       Cr473   1.988       .  S
O460        C461   1.266       .  A
O462       Cr471   1.858       .  S
O462        C470   1.274       .  A
O463      Cr1671   2.226   1_455  S
O463        C464   1.342       .  A
C464       C1017   1.529       .  S
C464       O1065   1.280       .  A
O465       Cr472   1.890       .  S
O465       C1064   1.280       .  A
O466       Cr472   2.240       .  S
O466        C467   1.344   1_455  A
C467       C1626   1.543       .  S
C467       O1668   1.272       .  A
O468      Cr1073   1.897       .  S
O468       C1667   1.272       .  A
O469       Cr473   2.214       .  S
O469        C470   1.339       .  A
Cr471      O1654   2.000       .  S
Cr471      O1663   2.226       .  S
Cr471      O1674   1.613       .  S
Cr472      O1074   1.629   1_445  S
Cr473      O1059   2.060       .  S
Cr473      O1068   1.897       .  S
Cr473      O1674   1.612       .  S
O474      Cr1671   1.613       .  S
O474      Cr1072   1.629   1_655  S
O474      Cr1673   1.612       .  S
C475        C476   1.434       .  A
C475        C480   1.428       .  A
C476        C477   1.403       .  A
C476        C481   1.435       .  S
C477        C478   1.391       .  A
C477        C484   1.440       .  S
C478        C479   1.399       .  A
C479        C480   1.399       .  A
C479        C482   1.447       .  S
C480        C483   1.452       .  S
C481        N488   1.153       .  T
C482        N487   1.157       .  T
C483        N485   1.158       .  T
C484        N486   1.154       .  T
C489        C490   1.410       .  A
C489        C494   1.393       .  A
C490        C491   1.393       .  A
C490        C495   1.452       .  S
C491        C492   1.419       .  A
C491        C498   1.451       .  S
C492        C493   1.442       .  A
C492       C1566   1.484       .  S
C493        C494   1.412       .  A
C493       C1696   1.449       .  S
C494        C497   1.446       .  S
C495        N502   1.158       .  T
C496       C1693   1.449   1_455  S
C496        N501   1.158       .  T
C497        N499   1.157       .  T
C498        N500   1.156       .  T
C503        C504   1.418       .  A
C503        C508   1.410       .  A
C504        C505   1.391       .  A
C504        C509   1.449       .  S
C505        C506   1.402       .  A
C505        C512   1.450       .  S
C506        C507   1.395       .  A
C506        C975   1.453   1_545  S
C507        C508   1.383       .  A
C507        C510   1.439       .  S
C508        C511   1.453       .  S
C509        N516   1.156       .  T
C510        N515   1.151       .  T
C511        N513   1.157       .  T
C512       N1114   1.156   1_545  T
N514       C1112   1.156       .  T
C517        C518   1.435       .  A
C517        C522   1.416       .  A
C518        C519   1.394       .  A
C518        C523   1.449       .  S
C519        C520   1.388       .  A
C519        C526   1.439       .  S
C520        C521   1.416       .  A
C521        C522   1.409       .  A
C521        C524   1.448       .  S
C522        C525   1.450       .  S
C523        N530   1.158       .  T
C524        N529   1.157       .  T
C525        N527   1.157       .  T
C526        N528   1.154       .  T
C531        C532   1.400       .  A
C531        C536   1.387       .  A
C531       C1015   1.499       .  S
C532        C533   1.397       .  A
C532        C537   1.440       .  S
C533        C534   1.424       .  A
C533        C540   1.450       .  S
C534        C535   1.432       .  A
C535        C536   1.402       .  A
C535        C538   1.447       .  S
C536        C539   1.435       .  S
C537        N544   1.154       .  T
C538        N543   1.156       .  T
C539       N1141   1.152       .  T
C540        N542   1.156       .  T
N541       C1139   1.153       .  T
C545        C546   1.390       .  A
C545        C550   1.415       .  A
C545       C1624   1.467       .  S
C546        C547   1.397       .  A
C546        C551   1.448       .  S
C547        C548   1.429       .  A
C547        C554   1.447       .  S
C548        C549   1.389       .  A
C549        C550   1.390       .  A
C549        C552   1.450       .  S
C550       C1753   1.427       .  S
C551        N558   1.155       .  T
C552        N557   1.156       .  T
C553       C1750   1.427       .  S
C553        N555   1.147       .  T
C554        N556   1.155       .  T
C559        C564   1.420   1_554  A
C560        C561   1.390       .  A
C560        C565   1.439       .  S
C561        C568   1.440       .  S
C562        C563   1.395       .  A
C563        C564   1.391       .  A
C563        C566   1.454       .  S
C564        C567   1.439       .  S
C565        N572   1.155       .  T
C566        N571   1.157       .  T
C567        N569   1.155       .  T
C568        N570   1.154       .  T
C573       C1778   1.412   1_554  A
C574        C575   1.394       .  A
C574        C579   1.449       .  S
C575        C582   1.446       .  S
C576       C1777   1.395       .  A
C577       C1776   1.395       .  A
C577        C578   1.389       .  A
C577        C580   1.457       .  S
C578       C1773   1.412   1_556  A
C578        C581   1.441       .  S
C579        N586   1.157       .  T
C580        N585   1.157       .  T
C581        N583   1.157       .  T
C582        N584   1.156       .  T
C587       C1188   1.422   1_545  A
C588       C1187   1.421       .  A
C588        C589   1.379       .  A
C588        C593   1.456       .  S
C589       C1190   1.405       .  A
C589        C596   1.462   1_554  S
C590       C1189   1.404   1_545  A
C590        C591   1.404       .  A
C592        C595   1.447       .  S
C593        N600   1.158       .  T
C594        N599   1.157       .  T
C595        N597   1.156       .  T
C596        N598   1.157       .  T
C601        C902   1.401   1_655  A
C601       C1206   1.382       .  A
C601       C1173   1.455       .  S
C602        C901   1.401   1_455  A
C602        C603   1.410       .  A
C602        H607   1.083       .  S
C603       C1204   1.399   1_455  A
C603        C887   1.481       .  S
C604       C1203   1.399   1_565  A
C604        C905   1.382       .  A
C604        H608   1.076       .  S
C605        C904   1.382       .  A
C605        C606   1.384       .  A
C605       C1159   1.460       .  S
C606       C1201   1.382   1_565  A
C606        H609   1.086       .  S
C610        C611   1.392       .  A
C610        C615   1.403       .  A
C610        C834   1.492       .  S
C611        C612   1.379       .  A
C611        H616   1.083       .  S
C612        C613   1.391       .  A
C612        C848   1.465       .  S
C613        C614   1.396       .  A
C613        H617   1.083       .  S
C614        C615   1.419       .  A
C614        C817   1.502       .  S
C615        H618   1.077       .  S
C619        C620   1.393       .  A
C619        C624   1.431       .  A
C619        C789   1.493       .  S
C620        C621   1.398       .  A
C620        H625   1.077       .  S
C621        C622   1.390       .  A
C621        C803   1.462       .  S
C622        C623   1.393       .  A
C622        H626   1.067       .  S
C623        C624   1.412       .  A
C623        C775   1.512       .  S
C624        H627   1.082       .  S
C628        C629   1.385       .  A
C628        C633   1.440       .  A
C628        C733   1.503       .  S
C629        C630   1.376       .  A
C629        H634   1.085       .  S
C630        C631   1.382       .  A
C630        C862   1.446       .  S
C631        C632   1.392       .  A
C631        H635   1.085       .  S
C632        C633   1.447       .  A
C632        C696   1.506       .  S
C633        H636   1.082       .  S
C637        C638   1.433       .  A
C637        C642   1.416       .  A
C637        C742   1.534       .  S
C638        C639   1.424       .  A
C638        H643   1.076       .  S
C639        C640   1.373       .  A
C639        C770   1.503       .  S
C640        C641   1.399       .  A
C640        H644   1.075       .  S
C641        C642   1.430       .  A
C641        C820   1.511       .  S
C642        H645   1.080       .  S
C646        C647   1.391       .  A
C646        C651   1.446       .  A
C646        C687   1.514       .  S
C647        C648   1.389       .  A
C647        H652   1.083       .  S
C648        C649   1.409       .  A
C648        C778   1.483       .  S
C649        C650   1.397       .  A
C649        H653   1.083       .  S
C650        C651   1.444       .  A
C650        C761   1.525       .  S
C651        H654   1.082       .  S
C655        C660   1.399       .  A
C655        C739   1.506       .  S
C656        C657   1.442   1_545  A
C656        H661   1.082   1_545  S
C657        C658   1.375       .  A
C657        C693   1.512       .  S
C658        H662   1.082       .  S
C659        C660   1.385       .  A
C659        C890   1.453       .  S
C660        H663   1.084       .  S
C664        C665   1.388   1_455  A
C664        C669   1.450       .  A
C664        C758   1.549       .  S
C665        C666   1.388       .  A
C665        H670   1.066       .  S
C666        C667   1.375   1_655  A
C666       C1992   1.484       .  S
C667        C668   1.396       .  A
C667        H671   1.084       .  S
C668        C669   1.462       .  A
C668        C690   1.514       .  S
C669        H672   1.081       .  S
C673        C674   1.386       .  A
C673        C678   1.452       .  A
C673        C684   1.517       .  S
C674        C675   1.372       .  A
C674        H679   1.083       .  S
C675        C676   1.392       .  A
C676        C677   1.385       .  A
C676        H680   1.084   1_565  S
C677        C678   1.452       .  A
C678        H681   1.078       .  S
O682       Cr700   2.097       .  S
O682        C690   1.303       .  A
O683       Cr700   1.999       .  S
O683        C684   1.270       .  A
C684        O685   1.303       .  A
O685       Cr701   2.077       .  S
O686       Cr701   1.981       .  S
O686        C687   1.264       .  A
C687        O688   1.303       .  A
O688       Cr702   2.091       .  S
O689       Cr702   1.980       .  S
O689        C690   1.265       .  A
O691       Cr700   1.883   1_556  S
O691        C999   1.281       .  A
O692       Cr700   2.240   1_556  S
O692        C993   1.343       .  A
C693        O992   1.343       .  A
C693        O994   1.272       .  A
O694       Cr701   1.878   1_556  S
O694        C993   1.272       .  A
O695       Cr701   2.195   1_556  S
O695        C996   1.333       .  A
C696        O995   1.334       .  A
C696        O997   1.276       .  A
O697       Cr702   1.878   1_556  S
O697        C996   1.276       .  A
O698       Cr702   2.223   1_556  S
O698        C999   1.343       .  A
C699        C708   1.517       .  S
C699        O991   1.281       .  A
C699        O998   1.343       .  A
Cr700       O703   1.615       .  S
Cr701       O703   1.611       .  S
Cr702       O703   1.607       .  S
C704        C705   1.384       .  A
C704       C1909   1.455       .  A
C704        C736   1.513       .  S
C705       C1906   1.372       .  A
C705        H710   1.085       .  S
C706       C1905   1.372       .  A
C706        C707   1.379   1_655  A
C706        C876   1.435       .  S
C707        C708   1.390       .  A
C707        H711   1.085       .  S
C708        C709   1.454       .  A
C709       C1904   1.455   1_455  A
C709        H712   1.082       .  S
C713        C714   1.404       .  A
C713        C718   1.449       .  A
C713        C748   1.530       .  S
C714        C715   1.417       .  A
C714        H719   1.083       .  S
C715        C716   1.398       .  A
C716        C717   1.387       .  A
C716        H720   1.077       .  S
C717        C718   1.445       .  A
C718        H721   1.080       .  S
C722        C723   1.398       .  A
C722        C727   1.462       .  A
C722        C745   1.547       .  S
C723        C724   1.404       .  A
C723        H728   1.084       .  S
C724        C725   1.393       .  A
C724       C2045   1.467       .  S
C725        C726   1.385       .  A
C725        H729   1.085       .  S
C726        C727   1.454       .  A
C726       C1967   1.543       .  S
C727        H730   1.079       .  S
O731       Cr749   2.107       .  S
O731        C739   1.303       .  A
O732       Cr749   1.976       .  S
O732        C733   1.266       .  A
C733        O734   1.300       .  A
O734       Cr750   2.094       .  S
O735       Cr750   1.975       .  S
O735        C736   1.264       .  A
C736        O737   1.305       .  A
O737       Cr751   2.108       .  S
O738       Cr751   1.967       .  S
O738        C739   1.266       .  A
O740       Cr749   1.877       .  S
O740        C748   1.279       .  A
O741       Cr749   2.248       .  S
O741        C742   1.343       .  A
C742        O743   1.282       .  A
O743       Cr750   1.874       .  S
O744       Cr750   2.273       .  S
O744        C745   1.352       .  A
C745        O746   1.277       .  A
O746       Cr751   1.884       .  S
O747       Cr751   2.253       .  S
O747        C748   1.347       .  A
Cr749       O752   1.616       .  S
Cr750       O752   1.608       .  S
Cr751       O752   1.609       .  S
O753       Cr771   2.102       .  S
O753        C761   1.304       .  A
O754      Cr1971   2.000   1_455  S
C755        O756   1.304       .  A
O756       Cr772   2.084       .  S
O757       Cr772   2.029       .  S
O757        C758   1.274       .  A
C758       O1959   1.302   1_455  A
O759       C1958   1.302       .  A
O760       Cr773   1.988   1_565  S
O760        C761   1.266       .  A
O762       Cr771   1.858       .  S
O762        C770   1.274       .  A
O763      Cr1971   2.226   1_455  S
O763        C764   1.342   1_565  A
O765       Cr772   1.890       .  S
O766       Cr772   2.240       .  S
O766        C767   1.344   1_455  A
C767       C1926   1.543       .  S
C767       O1968   1.272       .  A
O768       C1967   1.272       .  A
O769       Cr773   2.214   1_565  S
O769        C770   1.339       .  A
Cr771      O1954   2.000       .  S
Cr771      O1963   2.226       .  S
Cr771      O1974   1.613       .  S
Cr773      O1974   1.612   1_545  S
O774      Cr1971   1.613       .  S
O774      Cr1973   1.612   1_565  S
C775        C776   1.434       .  A
C775        C780   1.428       .  A
C776        C777   1.403       .  A
C776        C781   1.435       .  S
C777        C778   1.391       .  A
C777        C784   1.440       .  S
C778        C779   1.399       .  A
C779        C780   1.399       .  A
C779        C782   1.447       .  S
C780        C783   1.452       .  S
C781        N788   1.153       .  T
C782        N787   1.157       .  T
C783        N785   1.158       .  T
C784        N786   1.154       .  T
C789        C790   1.410       .  A
C789        C794   1.393       .  A
C790        C791   1.393       .  A
C790        C795   1.452       .  S
C791        C792   1.419       .  A
C791        C798   1.451       .  S
C792        C793   1.442       .  A
C792       C1866   1.484       .  S
C793        C794   1.412       .  A
C793       C1996   1.449       .  S
C794        C797   1.446       .  S
C795        N802   1.158       .  T
C796       C1993   1.449   1_455  S
C796        N801   1.158       .  T
C797        N799   1.157       .  T
C798        N800   1.156       .  T
C803        C804   1.418       .  A
C803        C808   1.410       .  A
C804        C805   1.391       .  A
C804        C809   1.449       .  S
C805        C806   1.402       .  A
C805        C812   1.450       .  S
C806        C807   1.395       .  A
C807        C808   1.383       .  A
C807        C810   1.439       .  S
C808        C811   1.453       .  S
C809        N816   1.156       .  T
C810        N815   1.151       .  T
C811        N813   1.157       .  T
C817        C818   1.435       .  A
C817        C822   1.417       .  A
C818        C819   1.394       .  A
C818        C823   1.449       .  S
C819        C820   1.388       .  A
C819        C826   1.439       .  S
C820        C821   1.416       .  A
C821        C822   1.409       .  A
C821        C824   1.448       .  S
C822        C825   1.449       .  S
C823        N830   1.158       .  T
C824        N829   1.157       .  T
C825        N827   1.157       .  T
C826        N828   1.154       .  T
C831        C832   1.400       .  A
C831        C836   1.387       .  A
C832        C833   1.397       .  A
C832        C837   1.440       .  S
C833        C834   1.424       .  A
C833        C840   1.450       .  S
C834        C835   1.432       .  A
C835        C836   1.402       .  A
C835        C838   1.447       .  S
C836        C839   1.435       .  S
C837        N844   1.154       .  T
C838        N843   1.156       .  T
C840        N842   1.156       .  T
C845        C846   1.390       .  A
C845        C850   1.415       .  A
C845       C1924   1.467       .  S
C846        C847   1.397       .  A
C846        C851   1.447       .  S
C847        C848   1.429       .  A
C847        C854   1.447       .  S
C848        C849   1.389       .  A
C849        C850   1.390       .  A
C849        C852   1.450       .  S
C850       C2053   1.427       .  S
C851        N858   1.155       .  T
C852        N857   1.156       .  T
C853       C2050   1.427       .  S
C853        N855   1.148       .  T
C854        N856   1.155       .  T
C859       C1160   1.378       .  A
C859        C864   1.421       .  A
C859        C905   1.460       .  S
C860       C1159   1.378       .  A
C860        C861   1.390       .  A
C860        C865   1.439       .  S
C861       C1162   1.416   1_554  A
C861        C868   1.440       .  S
C862       C1161   1.416       .  A
C862        C863   1.395       .  A
C863        C864   1.392       .  A
C863        C866   1.454       .  S
C864        C867   1.440       .  S
C865        N872   1.155       .  T
C866        N871   1.157       .  T
C867        N869   1.156       .  T
C868        N870   1.154       .  T
C873       C1174   1.403       .  A
C873       C2078   1.413       .  A
C873        C901   1.455       .  S
C874       C1173   1.403       .  A
C874        C875   1.394       .  A
C874        C879   1.449       .  S
C875       C1176   1.405   1_554  A
C875        C882   1.446       .  S
C876       C1175   1.405       .  A
C876       C2077   1.395       .  A
C877       C2076   1.395       .  A
C877        C878   1.389       .  A
C877        C880   1.457       .  S
C878       C2073   1.413       .  A
C878        C881   1.441       .  S
C879        N886   1.157       .  T
C880        N885   1.157       .  T
C881        N883   1.157       .  T
C882        N884   1.156       .  T
C887       C1192   1.418       .  A
C888        C889   1.379       .  A
C888        C893   1.456       .  S
C889        C896   1.462       .  S
C890        C891   1.404       .  A
C891       C1192   1.407       .  A
C891       C1194   1.450       .  S
C892       C1187   1.418       .  A
C892       C1191   1.407       .  A
C892        C895   1.447       .  S
C893        N900   1.158       .  T
C894       C1191   1.450       .  S
C894        N899   1.157       .  T
C895        N897   1.156       .  T
C896        N898   1.157       .  T
C901       C1506   1.382       .  A
C902        C903   1.410       .  A
C902        H907   1.083       .  S
C903       C1504   1.399   1_455  A
C903       C1187   1.481       .  S
C904       C1503   1.399   1_565  A
C904        H908   1.076       .  S
C905        C906   1.384       .  A
C906       C1501   1.382   1_565  A
C906        H909   1.086       .  S
C910        C911   1.392       .  A
C910        C915   1.403       .  A
C910       C1134   1.492       .  S
C911        C912   1.379       .  A
C911        H916   1.083       .  S
C912        C913   1.391       .  A
C912       C1148   1.465       .  S
C913        C914   1.396       .  A
C913        H917   1.083       .  S
C914        C915   1.419       .  A
C914       C1117   1.502       .  S
C915        H918   1.077       .  S
C919        C920   1.393       .  A
C919        C924   1.431       .  A
C919       C1089   1.493       .  S
C920        C921   1.398       .  A
C920        H925   1.077       .  S
C921        C922   1.390       .  A
C921       C1103   1.462       .  S
C922        C923   1.393       .  A
C922        H926   1.067       .  S
C923        C924   1.412       .  A
C923       C1075   1.513       .  S
C924        H927   1.082       .  S
C928        C929   1.385       .  A
C928        C933   1.440       .  A
C928       C1033   1.503       .  S
C929        C930   1.376       .  A
C929        H934   1.085       .  S
C930        C931   1.382       .  A
C930       C1162   1.446       .  S
C931        C932   1.392       .  A
C931        H935   1.085       .  S
C932        C933   1.447       .  A
C932        C996   1.506       .  S
C933        H936   1.082       .  S
C937        C938   1.433       .  A
C937        C942   1.416       .  A
C937       C1042   1.534       .  S
C938        C939   1.424       .  A
C938        H943   1.076       .  S
C939        C940   1.373       .  A
C939       C1070   1.503       .  S
C940        C941   1.399       .  A
C940        H944   1.075       .  S
C941        C942   1.430       .  A
C941       C1120   1.511       .  S
C942        H945   1.080       .  S
C946        C947   1.391       .  A
C946        C951   1.446       .  A
C946        C987   1.514       .  S
C947        C948   1.389       .  A
C947        H952   1.083       .  S
C948        C949   1.409       .  A
C948       C1078   1.484       .  S
C949        C950   1.397       .  A
C949        H953   1.083       .  S
C950        C951   1.444       .  A
C950       C1061   1.525       .  S
C951        H954   1.082       .  S
C955        C960   1.399       .  A
C955       C1039   1.506       .  S
C956        C957   1.442   1_545  A
C956        H961   1.082   1_545  S
C957        C958   1.375       .  A
C957        C993   1.512       .  S
C958        H962   1.082   1_556  S
C959        C960   1.385       .  A
C959       C1190   1.453   1_556  S
C960        H963   1.084       .  S
C964        C965   1.388   1_455  A
C964        C969   1.450       .  A
C964       C1058   1.549       .  S
C965        C966   1.388       .  A
C965        H970   1.066       .  S
C966        C967   1.375   1_655  A
C966       C2292   1.484       .  S
C967        C968   1.396       .  A
C967        H971   1.084       .  S
C968        C969   1.462       .  A
C968        C990   1.514       .  S
C969        H972   1.081       .  S
C973        C974   1.386       .  A
C973        C978   1.452       .  A
C973        C984   1.517       .  S
C974        C975   1.372       .  A
C974        H979   1.083       .  S
C975        C976   1.392       .  A
C976        C977   1.385       .  A
C976        H980   1.084   1_565  S
C977        C978   1.452       .  A
C978        H981   1.078       .  S
O982      Cr1000   2.097       .  S
O982        C990   1.303       .  A
O983      Cr1000   1.999       .  S
O983        C984   1.270       .  A
C984        O985   1.303       .  A
O985      Cr1001   2.077       .  S
O986      Cr1001   1.981       .  S
O986        C987   1.264       .  A
C987        O988   1.303       .  A
O988      Cr1002   2.091       .  S
O989      Cr1002   1.980       .  S
O989        C990   1.265       .  A
O991      Cr1000   1.883       .  S
O992      Cr1000   2.240       .  S
O994      Cr1001   1.878       .  S
O995      Cr1001   2.195       .  S
O997      Cr1002   1.878       .  S
O998      Cr1002   2.223       .  S
C999       C1008   1.517       .  S
Cr1000     O1003   1.615       .  S
Cr1001     O1003   1.611       .  S
Cr1002     O1003   1.607       .  S
C1004      C1005   1.384       .  A
C1004      C2209   1.455       .  A
C1004      C1036   1.513       .  S
C1005      C2206   1.372       .  A
C1005      H1010   1.085       .  S
C1006      C2205   1.372       .  A
C1006      C1007   1.379   1_655  A
C1006      C1176   1.435       .  S
C1007      C1008   1.390       .  A
C1007      H1011   1.085       .  S
C1008      C1009   1.454       .  A
C1009      C2204   1.455   1_455  A
C1009      H1012   1.082       .  S
C1013      C1014   1.404       .  A
C1013      C1018   1.449       .  A
C1013      C1048   1.530       .  S
C1014      C1015   1.417       .  A
C1014      H1019   1.083       .  S
C1015      C1016   1.398       .  A
C1016      C1017   1.387       .  A
C1016      H1020   1.077       .  S
C1017      C1018   1.445       .  A
C1018      H1021   1.080       .  S
C1022      C1023   1.398       .  A
C1022      C1027   1.462       .  A
C1022      C1045   1.547       .  S
C1023      C1024   1.404       .  A
C1023      H1028   1.084       .  S
C1024      C1025   1.393       .  A
C1024      C2345   1.467       .  S
C1025      C1026   1.385       .  A
C1025      H1029   1.085       .  S
C1026      C1027   1.454       .  A
C1026      C2267   1.543       .  S
C1027      H1030   1.079       .  S
O1031     Cr1049   2.107       .  S
O1031      C1039   1.303       .  A
O1032     Cr1049   1.976       .  S
O1032      C1033   1.266       .  A
C1033      O1034   1.300       .  A
O1034     Cr1050   2.094       .  S
O1035     Cr1050   1.975       .  S
O1035      C1036   1.264       .  A
C1036      O1037   1.305       .  A
O1037     Cr1051   2.108       .  S
O1038     Cr1051   1.967       .  S
O1038      C1039   1.266       .  A
O1040     Cr1049   1.877       .  S
O1040      C1048   1.279       .  A
O1041     Cr1049   2.248       .  S
O1041      C1042   1.343       .  A
C1042      O1043   1.282       .  A
O1043     Cr1050   1.874       .  S
O1044     Cr1050   2.273       .  S
O1044      C1045   1.352       .  A
C1045      O1046   1.277       .  A
O1046     Cr1051   1.884       .  S
O1047     Cr1051   2.253       .  S
O1047      C1048   1.347       .  A
Cr1049     O1052   1.616       .  S
Cr1050     O1052   1.608       .  S
Cr1051     O1052   1.609       .  S
O1053     Cr1071   2.102       .  S
O1053      C1061   1.304       .  A
O1054     Cr2271   2.000   1_455  S
C1055      O1056   1.304       .  A
O1056     Cr1072   2.084       .  S
O1057     Cr1072   2.029       .  S
O1057      C1058   1.274       .  A
C1058      O2259   1.302   1_455  A
O1059      C2258   1.302       .  A
O1060     Cr1073   1.988   1_565  S
O1060      C1061   1.266       .  A
O1062     Cr1071   1.858       .  S
O1062      C1070   1.274       .  A
O1063     Cr2271   2.226   1_455  S
O1063      C1064   1.342   1_565  A
O1065     Cr1072   1.890       .  S
O1066     Cr1072   2.240       .  S
O1066      C1067   1.344   1_455  A
C1067      C2226   1.543       .  S
C1067      O2268   1.272       .  A
O1068      C2267   1.272       .  A
O1069     Cr1073   2.214   1_565  S
O1069      C1070   1.339       .  A
Cr1071     O2254   2.000       .  S
Cr1071     O2263   2.226       .  S
Cr1071     O2274   1.613       .  S
Cr1073     O2274   1.612   1_545  S
O1074     Cr2271   1.613       .  S
O1074     Cr2273   1.612   1_565  S
C1075      C1076   1.434       .  A
C1075      C1080   1.428       .  A
C1076      C1077   1.403       .  A
C1076      C1081   1.435       .  S
C1077      C1078   1.391       .  A
C1077      C1084   1.440       .  S
C1078      C1079   1.399       .  A
C1079      C1080   1.399       .  A
C1079      C1082   1.447       .  S
C1080      C1083   1.452       .  S
C1081      N1088   1.153       .  T
C1082      N1087   1.157       .  T
C1083      N1085   1.158       .  T
C1084      N1086   1.154       .  T
C1089      C1090   1.410       .  A
C1089      C1094   1.393       .  A
C1090      C1091   1.393       .  A
C1090      C1095   1.452       .  S
C1091      C1092   1.419       .  A
C1091      C1098   1.451       .  S
C1092      C1093   1.442       .  A
C1092      C2166   1.484       .  S
C1093      C1094   1.412       .  A
C1093      C2296   1.449       .  S
C1094      C1097   1.446       .  S
C1095      N1102   1.158       .  T
C1096      C2293   1.449   1_455  S
C1096      N1101   1.158       .  T
C1097      N1099   1.157       .  T
C1098      N1100   1.156       .  T
C1103      C1104   1.418       .  A
C1103      C1108   1.410       .  A
C1104      C1105   1.391       .  A
C1104      C1109   1.449       .  S
C1105      C1106   1.402       .  A
C1105      C1112   1.450       .  S
C1106      C1107   1.395       .  A
C1107      C1108   1.383       .  A
C1107      C1110   1.439       .  S
C1108      C1111   1.453       .  S
C1109      N1116   1.156       .  T
C1110      N1115   1.151       .  T
C1111      N1113   1.157       .  T
C1117      C1118   1.435       .  A
C1117      C1122   1.417       .  A
C1118      C1119   1.394       .  A
C1118      C1123   1.449       .  S
C1119      C1120   1.388       .  A
C1119      C1126   1.439       .  S
C1120      C1121   1.416       .  A
C1121      C1122   1.409       .  A
C1121      C1124   1.448       .  S
C1122      C1125   1.449       .  S
C1123      N1130   1.158       .  T
C1124      N1129   1.157       .  T
C1125      N1127   1.157       .  T
C1126      N1128   1.154       .  T
C1131      C1132   1.400       .  A
C1131      C1136   1.387       .  A
C1132      C1133   1.397       .  A
C1132      C1137   1.440       .  S
C1133      C1134   1.424       .  A
C1133      C1140   1.450       .  S
C1134      C1135   1.432       .  A
C1135      C1136   1.402       .  A
C1135      C1138   1.447       .  S
C1136      C1139   1.435       .  S
C1137      N1144   1.154       .  T
C1138      N1143   1.156       .  T
C1140      N1142   1.156       .  T
C1145      C1146   1.390       .  A
C1145      C1150   1.415       .  A
C1145      C2224   1.467       .  S
C1146      C1147   1.397       .  A
C1146      C1151   1.447       .  S
C1147      C1148   1.429       .  A
C1147      C1154   1.447       .  S
C1148      C1149   1.389       .  A
C1149      C1150   1.390       .  A
C1149      C1152   1.450       .  S
C1150      C2353   1.427       .  S
C1151      N1158   1.155       .  T
C1152      N1157   1.156       .  T
C1153      C2350   1.427       .  S
C1153      N1155   1.148       .  T
C1154      N1156   1.155       .  T
C1159      C1164   1.421   1_554  A
C1160      C1161   1.390       .  A
C1160      C1165   1.439       .  S
C1161      C1168   1.440       .  S
C1162      C1163   1.395       .  A
C1163      C1164   1.392       .  A
C1163      C1166   1.454       .  S
C1164      C1167   1.440       .  S
C1165      N1172   1.155       .  T
C1166      N1171   1.157       .  T
C1167      N1169   1.156       .  T
C1168      N1170   1.154       .  T
C1173      C2378   1.413   1_554  A
C1174      C1175   1.394       .  A
C1174      C1179   1.449       .  S
C1175      C1182   1.446       .  S
C1176      C2377   1.395       .  A
C1177      C2376   1.395       .  A
C1177      C1178   1.389       .  A
C1177      C1180   1.457       .  S
C1178      C2373   1.413   1_556  A
C1178      C1181   1.441       .  S
C1179      N1186   1.157       .  T
C1180      N1185   1.157       .  T
C1181      N1183   1.157       .  T
C1182      N1184   1.156       .  T
C1188      C1189   1.379       .  A
C1188      C1193   1.456       .  S
C1189      C1196   1.462   1_554  S
C1190      C1191   1.404       .  A
C1192      C1195   1.447       .  S
C1193      N1200   1.158       .  T
C1194      N1199   1.157       .  T
C1195      N1197   1.156       .  T
C1196      N1198   1.157       .  T
C1201      C1502   1.402       .  A
C1201      C1773   1.455       .  S
C1202      C1501   1.402       .  A
C1202      C1203   1.410       .  A
C1202      H1207   1.083       .  S
C1203      C1487   1.481       .  S
C1204      C1505   1.382       .  A
C1204      H1208   1.077   1_655  S
C1205      C1504   1.382       .  A
C1205      C1206   1.384       .  A
C1205      C1759   1.461       .  S
C1206      H1209   1.086       .  S
C1210      C1211   1.392       .  A
C1210      C1215   1.403       .  A
C1210      C1434   1.492       .  S
C1211      C1212   1.379       .  A
C1211      H1216   1.083       .  S
C1212      C1213   1.391       .  A
C1212      C1448   1.465       .  S
C1213      C1214   1.396       .  A
C1213      H1217   1.083       .  S
C1214      C1215   1.419       .  A
C1214      C1417   1.502       .  S
C1215      H1218   1.078       .  S
C1219      C1220   1.393       .  A
C1219      C1224   1.431       .  A
C1219      C1389   1.493       .  S
C1220      C1221   1.398       .  A
C1220      H1225   1.076       .  S
C1221      C1222   1.390       .  A
C1221      C1403   1.462       .  S
C1222      C1223   1.393       .  A
C1222      H1226   1.066       .  S
C1223      C1224   1.412       .  A
C1223      C1375   1.513       .  S
C1224      H1227   1.082       .  S
C1228      C1229   1.385       .  A
C1228      C1233   1.440       .  A
C1228      C1333   1.504       .  S
C1229      C1230   1.377       .  A
C1229      H1234   1.085       .  S
C1230      C1231   1.382       .  A
C1230      C1462   1.446       .  S
C1231      C1232   1.392       .  A
C1231      H1235   1.085       .  S
C1232      C1233   1.447       .  A
C1232      C1296   1.506       .  S
C1233      H1236   1.082       .  S
C1237      C1238   1.433       .  A
C1237      C1242   1.416       .  A
C1237      C1342   1.534       .  S
C1238      C1239   1.424       .  A
C1238      H1243   1.076       .  S
C1239      C1240   1.373       .  A
C1239      C1370   1.503       .  S
C1240      C1241   1.399       .  A
C1240      H1244   1.075       .  S
C1241      C1242   1.430       .  A
C1241      C1420   1.511       .  S
C1242      H1245   1.080       .  S
C1246      C1247   1.391       .  A
C1246      C1251   1.446       .  A
C1246      C1287   1.514       .  S
C1247      C1248   1.389       .  A
C1247      H1252   1.083       .  S
C1248      C1249   1.409       .  A
C1248      C1378   1.483       .  S
C1249      C1250   1.397       .  A
C1249      H1253   1.083       .  S
C1250      C1251   1.443       .  A
C1250      C1361   1.525       .  S
C1251      H1254   1.082       .  S
C1255      C1856   1.452       .  A
C1255      C1260   1.399       .  A
C1255      C1339   1.506       .  S
C1256      C1855   1.452       .  A
C1256      C1257   1.441       .  A
C1256      H1261   1.082       .  S
C1257      C1258   1.375       .  A
C1257      C1293   1.512       .  S
C1258      C1859   1.382       .  A
C1258      H1262   1.082       .  S
C1259      C1858   1.382   1_545  A
C1259      C1260   1.385       .  A
C1259      C1490   1.453       .  S
C1260      H1263   1.084       .  S
C1264      C1265   1.388       .  A
C1264      C1269   1.450       .  A
C1264      C1358   1.548       .  S
C1265      C1266   1.388       .  A
C1265      H1270   1.066       .  S
C1266      C1267   1.375       .  A
C1267      C1268   1.396       .  A
C1267      H1271   1.084       .  S
C1268      C1269   1.461       .  A
C1268      C1290   1.514       .  S
C1269      H1272   1.081       .  S
C1273      C1274   1.385       .  A
C1273      C1278   1.451       .  A
C1273      C1284   1.517       .  S
C1274      C1275   1.372       .  A
C1274      H1279   1.083       .  S
C1275      C1276   1.392       .  A
C1275      C2006   1.454       .  S
C1276      C1277   1.385       .  A
C1276      H1280   1.084       .  S
C1277      C1278   1.452       .  A
C1277      C1955   1.528       .  S
C1278      H1281   1.078       .  S
O1282     Cr1300   2.098       .  S
O1282      C1290   1.303       .  A
O1283     Cr1300   1.999       .  S
O1283      C1284   1.270       .  A
C1284      O1285   1.303       .  A
O1285     Cr1301   2.077       .  S
O1286     Cr1301   1.981       .  S
O1286      C1287   1.264       .  A
C1287      O1288   1.303       .  A
O1288     Cr1302   2.091       .  S
O1289     Cr1302   1.979       .  S
O1289      C1290   1.265       .  A
O1291     Cr1300   1.884   1_556  S
O1291      C1599   1.281       .  A
O1292     Cr1300   2.241   1_556  S
O1292      C1593   1.343       .  A
C1293      O1592   1.343       .  A
C1293      O1594   1.271       .  A
O1294     Cr1301   1.878   1_556  S
O1294      C1593   1.271       .  A
O1295     Cr1301   2.194   1_556  S
O1295      C1596   1.333       .  A
C1296      O1595   1.333       .  A
C1296      O1597   1.276       .  A
O1297     Cr1302   1.878   1_556  S
O1297      C1596   1.276       .  A
O1298     Cr1302   2.223   1_556  S
O1298      C1599   1.343       .  A
C1299      C1308   1.517       .  S
C1299      O1591   1.281       .  A
C1299      O1598   1.343       .  A
Cr1300     O1303   1.615       .  S
Cr1301     O1303   1.610       .  S
Cr1302     O1303   1.607       .  S
C1304      C1305   1.384       .  A
C1304      C1336   1.513       .  S
C1305      H1310   1.085       .  S
C1306      C1307   1.378       .  A
C1306      C1476   1.435       .  S
C1307      C1308   1.390       .  A
C1307      H1311   1.085       .  S
C1308      C1309   1.454       .  A
C1309      H1312   1.082       .  S
C1313      C1314   1.404       .  A
C1313      C1318   1.449       .  A
C1313      C1348   1.530       .  S
C1314      C1315   1.417   1_545  A
C1314      H1319   1.083       .  S
C1315      C1316   1.398   1_565  A
C1315      C2031   1.499       .  S
C1316      C1317   1.387       .  A
C1316      H1320   1.077   1_545  S
C1317      C1318   1.445       .  A
C1317      C1964   1.529       .  S
C1318      H1321   1.080       .  S
C1322      C1323   1.398       .  A
C1322      C1327   1.462       .  A
C1322      C1345   1.547       .  S
C1323      C1324   1.404   1_655  A
C1323      H1328   1.084       .  S
C1324      C1325   1.393       .  A
C1325      C1326   1.385   1_455  A
C1325      H1329   1.085       .  S
C1326      C1327   1.454       .  A
C1327      H1330   1.079       .  S
O1331     Cr1349   2.107       .  S
O1331      C1339   1.303       .  A
O1332     Cr1349   1.976       .  S
O1332      C1333   1.267       .  A
C1333      O1334   1.300       .  A
O1334     Cr1350   2.094       .  S
O1335     Cr1350   1.975       .  S
O1335      C1336   1.264       .  A
C1336      O1337   1.305       .  A
O1337     Cr1351   2.108       .  S
O1338     Cr1351   1.967       .  S
O1338      C1339   1.266       .  A
O1340     Cr1349   1.878       .  S
O1340      C1348   1.279       .  A
O1341     Cr1349   2.247       .  S
O1341      C1342   1.343       .  A
C1342      O1343   1.283       .  A
O1343     Cr1350   1.874       .  S
O1344     Cr1350   2.274       .  S
O1344      C1345   1.352       .  A
C1345      O1346   1.277       .  A
O1346     Cr1351   1.883       .  S
O1347     Cr1351   2.253       .  S
O1347      C1348   1.347       .  A
Cr1349     O1352   1.616       .  S
Cr1350     O1352   1.608       .  S
Cr1351     O1352   1.609       .  S
O1353     Cr1371   2.101       .  S
O1353      C1361   1.304       .  A
O1354      C1955   1.271       .  A
C1355      C1877   1.528       .  S
C1355      O1954   1.271       .  A
C1355      O1356   1.304   1_565  A
O1356     Cr1372   2.084       .  S
O1357     Cr1372   2.029       .  S
O1357      C1358   1.274       .  A
O1359     Cr1973   2.060       .  S
O1360     Cr1373   1.988       .  S
O1360      C1361   1.266       .  A
O1362     Cr1371   1.858       .  S
O1362      C1370   1.274       .  A
O1363      C1364   1.342       .  A
C1364      C1917   1.529       .  S
C1364      O1965   1.280       .  A
O1365     Cr1372   1.890       .  S
O1365      C1964   1.280       .  A
O1366     Cr1372   2.240       .  S
O1366      C1367   1.344       .  A
O1368     Cr1973   1.897       .  S
O1369     Cr1373   2.214       .  S
O1369      C1370   1.339       .  A
Cr1372     O1974   1.629   1_545  S
Cr1373     O1959   2.060       .  S
Cr1373     O1968   1.897       .  S
O1374     Cr1972   1.629       .  S
C1375      C1376   1.434       .  A
C1375      C1380   1.428       .  A
C1376      C1377   1.403       .  A
C1376      C1381   1.435       .  S
C1377      C1378   1.391       .  A
C1377      C1384   1.440       .  S
C1378      C1379   1.399       .  A
C1379      C1380   1.399       .  A
C1379      C1382   1.447       .  S
C1380      C1383   1.452       .  S
C1381      N1388   1.153       .  T
C1382      N1387   1.157       .  T
C1383      N1385   1.158       .  T
C1384      N1386   1.154       .  T
C1389      C1390   1.410       .  A
C1389      C1394   1.393       .  A
C1390      C1391   1.393       .  A
C1390      C1395   1.452       .  S
C1391      C1392   1.419       .  A
C1391      C1398   1.451       .  S
C1392      C1393   1.442       .  A
C1393      C1394   1.412       .  A
C1394      C1397   1.446       .  S
C1395      N1402   1.158       .  T
C1396      N1401   1.158       .  T
C1397      N1399   1.157   1_655  T
C1398      N1400   1.156       .  T
C1403      C1404   1.418       .  A
C1403      C1408   1.410       .  A
C1404      C1405   1.391       .  A
C1404      C1409   1.449       .  S
C1405      C1406   1.402       .  A
C1405      C1412   1.450       .  S
C1406      C1407   1.395       .  A
C1406      C1875   1.453   1_545  S
C1407      C1408   1.383       .  A
C1407      C1410   1.439       .  S
C1408      C1411   1.453       .  S
C1409      N1416   1.156       .  T
C1410      N1415   1.151       .  T
C1411      N1413   1.157       .  T
C1412      N2014   1.156   1_545  T
N1414      C2012   1.156       .  T
C1417      C1418   1.435       .  A
C1417      C1422   1.416       .  A
C1418      C1419   1.394       .  A
C1418      C1423   1.449       .  S
C1419      C1420   1.388       .  A
C1419      C1426   1.439       .  S
C1420      C1421   1.416       .  A
C1421      C1422   1.409       .  A
C1421      C1424   1.448       .  S
C1422      C1425   1.449       .  S
C1423      N1430   1.158       .  T
C1424      N1429   1.157       .  T
C1425      N1427   1.157       .  T
C1426      N1428   1.154       .  T
C1431      C1432   1.400       .  A
C1431      C1436   1.387       .  A
C1431      C1915   1.499       .  S
C1432      C1433   1.397       .  A
C1432      C1437   1.440       .  S
C1433      C1434   1.424       .  A
C1433      C1440   1.450       .  S
C1434      C1435   1.431       .  A
C1435      C1436   1.402       .  A
C1435      C1438   1.447       .  S
C1436      C1439   1.435       .  S
C1437      N1444   1.154       .  T
C1438      N1443   1.156       .  T
C1439      N2041   1.152       .  T
C1440      N1442   1.156       .  T
N1441      C2039   1.153       .  T
C1445      C1446   1.390       .  A
C1445      C1450   1.415       .  A
C1446      C1447   1.397       .  A
C1446      C1451   1.448       .  S
C1447      C1448   1.429       .  A
C1447      C1454   1.447       .  S
C1448      C1449   1.389       .  A
C1449      C1450   1.390       .  A
C1449      C1452   1.450       .  S
C1451      N1458   1.155       .  T
C1452      N1457   1.156       .  T
C1453      N1455   1.147       .  T
C1454      N1456   1.155       .  T
C1459      C1760   1.378       .  A
C1459      C1464   1.420       .  A
C1459      C1505   1.461       .  S
C1460      C1759   1.378       .  A
C1460      C1461   1.390       .  A
C1460      C1465   1.439       .  S
C1461      C1762   1.417   1_554  A
C1461      C1468   1.440       .  S
C1462      C1761   1.417       .  A
C1462      C1463   1.395       .  A
C1463      C1464   1.391       .  A
C1463      C1466   1.454       .  S
C1464      C1467   1.439       .  S
C1465      N1472   1.155       .  T
C1466      N1471   1.157       .  T
C1467      N1469   1.155   1_655  T
C1468      N1470   1.154       .  T
C1473      C1774   1.402       .  A
C1473      C1501   1.455       .  S
C1474      C1773   1.402       .  A
C1474      C1475   1.394       .  A
C1474      C1479   1.449       .  S
C1475      C1776   1.405   1_554  A
C1475      C1482   1.446       .  S
C1476      C1775   1.405       .  A
C1477      C1478   1.389       .  A
C1477      C1480   1.457   1_655  S
C1478      C1481   1.441       .  S
C1479      N1486   1.157       .  T
C1480      N1485   1.157       .  T
C1481      N1483   1.157       .  T
C1482      N1484   1.156       .  T
C1487      C2088   1.422   1_545  A
C1487      C1792   1.418       .  A
C1488      C2087   1.421       .  A
C1488      C1489   1.379       .  A
C1488      C1493   1.456       .  S
C1489      C2090   1.405       .  A
C1489      C1496   1.462       .  S
C1490      C2089   1.404   1_545  A
C1490      C1491   1.404       .  A
C1491      C1792   1.407       .  A
C1491      C1794   1.450       .  S
C1492      C1787   1.418       .  A
C1492      C1791   1.407       .  A
C1492      C1495   1.447       .  S
C1493      N1500   1.158       .  T
C1494      C1791   1.450       .  S
C1494      N1499   1.157       .  T
C1495      N1497   1.156       .  T
C1496      N1498   1.157       .  T
C1502      C1503   1.410       .  A
C1502      H1507   1.083       .  S
C1503      C1787   1.481       .  S
C1504      H1508   1.077   1_655  S
C1505      C1506   1.384       .  A
C1506      H1509   1.086       .  S
C1510      C1511   1.392       .  A
C1510      C1515   1.403       .  A
C1510      C1734   1.492       .  S
C1511      C1512   1.379       .  A
C1511      H1516   1.083       .  S
C1512      C1513   1.391       .  A
C1512      C1748   1.465       .  S
C1513      C1514   1.396       .  A
C1513      H1517   1.083       .  S
C1514      C1515   1.419       .  A
C1514      C1717   1.502       .  S
C1515      H1518   1.078       .  S
C1519      C1520   1.393       .  A
C1519      C1524   1.431       .  A
C1519      C1689   1.493       .  S
C1520      C1521   1.398       .  A
C1520      H1525   1.076       .  S
C1521      C1522   1.390       .  A
C1521      C1703   1.462       .  S
C1522      C1523   1.393       .  A
C1522      H1526   1.066       .  S
C1523      C1524   1.412       .  A
C1523      C1675   1.513       .  S
C1524      H1527   1.082       .  S
C1528      C1529   1.385       .  A
C1528      C1533   1.440       .  A
C1528      C1633   1.504       .  S
C1529      C1530   1.377       .  A
C1529      H1534   1.085       .  S
C1530      C1531   1.382       .  A
C1530      C1762   1.446       .  S
C1531      C1532   1.392       .  A
C1531      H1535   1.085       .  S
C1532      C1533   1.447       .  A
C1532      C1596   1.506       .  S
C1533      H1536   1.082       .  S
C1537      C1538   1.433       .  A
C1537      C1542   1.416       .  A
C1537      C1642   1.534       .  S
C1538      C1539   1.424       .  A
C1538      H1543   1.076       .  S
C1539      C1540   1.373       .  A
C1539      C1670   1.503       .  S
C1540      C1541   1.399       .  A
C1540      H1544   1.075       .  S
C1541      C1542   1.430       .  A
C1541      C1720   1.511       .  S
C1542      H1545   1.080       .  S
C1546      C1547   1.391       .  A
C1546      C1551   1.446       .  A
C1546      C1587   1.514       .  S
C1547      C1548   1.389       .  A
C1547      H1552   1.083       .  S
C1548      C1549   1.409       .  A
C1548      C1678   1.483       .  S
C1549      C1550   1.397       .  A
C1549      H1553   1.083       .  S
C1550      C1551   1.443       .  A
C1550      C1661   1.525       .  S
C1551      H1554   1.082       .  S
C1555      C2156   1.452       .  A
C1555      C1560   1.399       .  A
C1555      C1639   1.506       .  S
C1556      C2155   1.452       .  A
C1556      C1557   1.441       .  A
C1556      H1561   1.082       .  S
C1557      C1558   1.375       .  A
C1557      C1593   1.512       .  S
C1558      C2159   1.382       .  A
C1558      H1562   1.082   1_556  S
C1559      C2158   1.382   1_545  A
C1559      C1560   1.385       .  A
C1559      C1790   1.453   1_556  S
C1560      H1563   1.084       .  S
C1564      C1565   1.388       .  A
C1564      C1569   1.450       .  A
C1564      C1658   1.548       .  S
C1565      C1566   1.388       .  A
C1565      H1570   1.066       .  S
C1566      C1567   1.375       .  A
C1567      C1568   1.396       .  A
C1567      H1571   1.083       .  S
C1568      C1569   1.461       .  A
C1568      C1590   1.514       .  S
C1569      H1572   1.081       .  S
C1573      C1574   1.385       .  A
C1573      C1578   1.451       .  A
C1573      C1584   1.517       .  S
C1574      C1575   1.372       .  A
C1574      H1579   1.083       .  S
C1575      C1576   1.392       .  A
C1575      C2306   1.454       .  S
C1576      C1577   1.385       .  A
C1576      H1580   1.084       .  S
C1577      C1578   1.452       .  A
C1577      C2255   1.528       .  S
C1578      H1581   1.078       .  S
O1582     Cr1600   2.097       .  S
O1582      C1590   1.303       .  A
O1583     Cr1600   1.999       .  S
O1583      C1584   1.270       .  A
C1584      O1585   1.303       .  A
O1585     Cr1601   2.077       .  S
O1586     Cr1601   1.981       .  S
O1586      C1587   1.264       .  A
C1587      O1588   1.303       .  A
O1588     Cr1602   2.091       .  S
O1589     Cr1602   1.979       .  S
O1589      C1590   1.265       .  A
O1591     Cr1600   1.884       .  S
O1592     Cr1600   2.241       .  S
O1594     Cr1601   1.878       .  S
O1595     Cr1601   2.194       .  S
O1597     Cr1602   1.878       .  S
O1598     Cr1602   2.223       .  S
C1599      C1608   1.517       .  S
Cr1600     O1603   1.615       .  S
Cr1601     O1603   1.610       .  S
Cr1602     O1603   1.607       .  S
C1604      C1605   1.384       .  A
C1604      C1636   1.513       .  S
C1605      H1610   1.085       .  S
C1606      C1607   1.378       .  A
C1606      C1776   1.435       .  S
C1607      C1608   1.390       .  A
C1607      H1611   1.085       .  S
C1608      C1609   1.454       .  A
C1609      H1612   1.082       .  S
C1613      C1614   1.404       .  A
C1613      C1618   1.449       .  A
C1613      C1648   1.530       .  S
C1614      C1615   1.417   1_545  A
C1614      H1619   1.083       .  S
C1615      C1616   1.398   1_565  A
C1615      C2331   1.499       .  S
C1616      C1617   1.387       .  A
C1616      H1620   1.077   1_545  S
C1617      C1618   1.445       .  A
C1617      C2264   1.529       .  S
C1618      H1621   1.080       .  S
C1622      C1623   1.398       .  A
C1622      C1627   1.462       .  A
C1622      C1645   1.547       .  S
C1623      C1624   1.404   1_655  A
C1623      H1628   1.084       .  S
C1624      C1625   1.393       .  A
C1625      C1626   1.385   1_455  A
C1625      H1629   1.085       .  S
C1626      C1627   1.454       .  A
C1627      H1630   1.079       .  S
O1631     Cr1649   2.107       .  S
O1631      C1639   1.303       .  A
O1632     Cr1649   1.976       .  S
O1632      C1633   1.267       .  A
C1633      O1634   1.300       .  A
O1634     Cr1650   2.094       .  S
O1635     Cr1650   1.975       .  S
O1635      C1636   1.264       .  A
C1636      O1637   1.305       .  A
O1637     Cr1651   2.108       .  S
O1638     Cr1651   1.967       .  S
O1638      C1639   1.266       .  A
O1640     Cr1649   1.878       .  S
O1640      C1648   1.279       .  A
O1641     Cr1649   2.247       .  S
O1641      C1642   1.343       .  A
C1642      O1643   1.283       .  A
O1643     Cr1650   1.874       .  S
O1644     Cr1650   2.274       .  S
O1644      C1645   1.352       .  A
C1645      O1646   1.277       .  A
O1646     Cr1651   1.883       .  S
O1647     Cr1651   2.253       .  S
O1647      C1648   1.347       .  A
Cr1649     O1652   1.616       .  S
Cr1650     O1652   1.608       .  S
Cr1651     O1652   1.609       .  S
O1653     Cr1671   2.102       .  S
O1653      C1661   1.304       .  A
O1654      C2255   1.271       .  A
C1655      C2177   1.528       .  S
C1655      O2254   1.271       .  A
C1655      O1656   1.304   1_565  A
O1656     Cr1672   2.084       .  S
O1657     Cr1672   2.029       .  S
O1657      C1658   1.274       .  A
O1659     Cr2273   2.060       .  S
O1660     Cr1673   1.988       .  S
O1660      C1661   1.266       .  A
O1662     Cr1671   1.858       .  S
O1662      C1670   1.274       .  A
O1663      C1664   1.342       .  A
C1664      C2217   1.529       .  S
C1664      O2265   1.280       .  A
O1665     Cr1672   1.890       .  S
O1665      C2264   1.280       .  A
O1666     Cr1672   2.240       .  S
O1666      C1667   1.344       .  A
O1668     Cr2273   1.897       .  S
O1669     Cr1673   2.214       .  S
O1669      C1670   1.339       .  A
Cr1672     O2274   1.629   1_545  S
Cr1673     O2259   2.060       .  S
Cr1673     O2268   1.897       .  S
O1674     Cr2272   1.629       .  S
C1675      C1676   1.434       .  A
C1675      C1680   1.428       .  A
C1676      C1677   1.403       .  A
C1676      C1681   1.435       .  S
C1677      C1678   1.391       .  A
C1677      C1684   1.440       .  S
C1678      C1679   1.399       .  A
C1679      C1680   1.399       .  A
C1679      C1682   1.447       .  S
C1680      C1683   1.452       .  S
C1681      N1688   1.153       .  T
C1682      N1687   1.157       .  T
C1683      N1685   1.158       .  T
C1684      N1686   1.154       .  T
C1689      C1690   1.410       .  A
C1689      C1694   1.393       .  A
C1690      C1691   1.393       .  A
C1690      C1695   1.452       .  S
C1691      C1692   1.419       .  A
C1691      C1698   1.451       .  S
C1692      C1693   1.442       .  A
C1693      C1694   1.412       .  A
C1694      C1697   1.446       .  S
C1695      N1702   1.158       .  T
C1696      N1701   1.158       .  T
C1697      N1699   1.157   1_655  T
C1698      N1700   1.156       .  T
C1703      C1704   1.418       .  A
C1703      C1708   1.410       .  A
C1704      C1705   1.391       .  A
C1704      C1709   1.449       .  S
C1705      C1706   1.402       .  A
C1705      C1712   1.450       .  S
C1706      C1707   1.395       .  A
C1706      C2175   1.453   1_545  S
C1707      C1708   1.383       .  A
C1707      C1710   1.439       .  S
C1708      C1711   1.453       .  S
C1709      N1716   1.156       .  T
C1710      N1715   1.151       .  T
C1711      N1713   1.157       .  T
C1712      N2314   1.156   1_545  T
N1714      C2312   1.156       .  T
C1717      C1718   1.435       .  A
C1717      C1722   1.416       .  A
C1718      C1719   1.394       .  A
C1718      C1723   1.449       .  S
C1719      C1720   1.388       .  A
C1719      C1726   1.439       .  S
C1720      C1721   1.416       .  A
C1721      C1722   1.409       .  A
C1721      C1724   1.448       .  S
C1722      C1725   1.450       .  S
C1723      N1730   1.158       .  T
C1724      N1729   1.157       .  T
C1725      N1727   1.157       .  T
C1726      N1728   1.154       .  T
C1731      C1732   1.400       .  A
C1731      C1736   1.387       .  A
C1731      C2215   1.499       .  S
C1732      C1733   1.397       .  A
C1732      C1737   1.440       .  S
C1733      C1734   1.424       .  A
C1733      C1740   1.450       .  S
C1734      C1735   1.432       .  A
C1735      C1736   1.402       .  A
C1735      C1738   1.447       .  S
C1736      C1739   1.435       .  S
C1737      N1744   1.154       .  T
C1738      N1743   1.156       .  T
C1739      N2341   1.152       .  T
C1740      N1742   1.156       .  T
N1741      C2339   1.153       .  T
C1745      C1746   1.390       .  A
C1745      C1750   1.415       .  A
C1746      C1747   1.397       .  A
C1746      C1751   1.448       .  S
C1747      C1748   1.429       .  A
C1747      C1754   1.447       .  S
C1748      C1749   1.389       .  A
C1749      C1750   1.390       .  A
C1749      C1752   1.450       .  S
C1751      N1758   1.155       .  T
C1752      N1757   1.156       .  T
C1753      N1755   1.147       .  T
C1754      N1756   1.155       .  T
C1759      C1764   1.420   1_554  A
C1760      C1761   1.390       .  A
C1760      C1765   1.439       .  S
C1761      C1768   1.440       .  S
C1762      C1763   1.395       .  A
C1763      C1764   1.391       .  A
C1763      C1766   1.454       .  S
C1764      C1767   1.439       .  S
C1765      N1772   1.155       .  T
C1766      N1771   1.157       .  T
C1767      N1769   1.155   1_655  T
C1768      N1770   1.154       .  T
C1774      C1775   1.394       .  A
C1774      C1779   1.449       .  S
C1775      C1782   1.446       .  S
C1777      C1778   1.389       .  A
C1777      C1780   1.457   1_655  S
C1778      C1781   1.441       .  S
C1779      N1786   1.157       .  T
C1780      N1785   1.157       .  T
C1781      N1783   1.157       .  T
C1782      N1784   1.156       .  T
C1787      C2388   1.422   1_545  A
C1788      C2387   1.421       .  A
C1788      C1789   1.379       .  A
C1788      C1793   1.456       .  S
C1789      C2390   1.405       .  A
C1789      C1796   1.462   1_554  S
C1790      C2389   1.404   1_545  A
C1790      C1791   1.404       .  A
C1792      C1795   1.447       .  S
C1793      N1800   1.158       .  T
C1794      N1799   1.157       .  T
C1795      N1797   1.156       .  T
C1796      N1798   1.157       .  T
C1801      C2102   1.401       .  A
C1801      C2373   1.455       .  S
C1802      C2101   1.401       .  A
C1802      C1803   1.410       .  A
C1802      H1807   1.083       .  S
C1803      C2087   1.481       .  S
C1804      C2105   1.382       .  A
C1804      H1808   1.076   1_655  S
C1805      C2104   1.382       .  A
C1805      C1806   1.384       .  A
C1805      C2359   1.460       .  S
C1806      H1809   1.086       .  S
C1810      C1811   1.392       .  A
C1810      C1815   1.403       .  A
C1810      C2034   1.492       .  S
C1811      C1812   1.379       .  A
C1811      H1816   1.083       .  S
C1812      C1813   1.391       .  A
C1812      C2048   1.465       .  S
C1813      C1814   1.396       .  A
C1813      H1817   1.083       .  S
C1814      C1815   1.419       .  A
C1814      C2017   1.502       .  S
C1815      H1818   1.077       .  S
C1819      C1820   1.393       .  A
C1819      C1824   1.431       .  A
C1819      C1989   1.493       .  S
C1820      C1821   1.398       .  A
C1820      H1825   1.077       .  S
C1821      C1822   1.390       .  A
C1821      C2003   1.462       .  S
C1822      C1823   1.393       .  A
C1822      H1826   1.067       .  S
C1823      C1824   1.412       .  A
C1823      C1975   1.513       .  S
C1824      H1827   1.082       .  S
C1828      C1829   1.385       .  A
C1828      C1833   1.440       .  A
C1828      C1933   1.503       .  S
C1829      C1830   1.376       .  A
C1829      H1834   1.085       .  S
C1830      C1831   1.382       .  A
C1830      C2062   1.446       .  S
C1831      C1832   1.392       .  A
C1831      H1835   1.085       .  S
C1832      C1833   1.447       .  A
C1832      C1896   1.506       .  S
C1833      H1836   1.082       .  S
C1837      C1838   1.433       .  A
C1837      C1842   1.416       .  A
C1837      C1942   1.534       .  S
C1838      C1839   1.424       .  A
C1838      H1843   1.076       .  S
C1839      C1840   1.373       .  A
C1839      C1970   1.503       .  S
C1840      C1841   1.399       .  A
C1840      H1844   1.075       .  S
C1841      C1842   1.430       .  A
C1841      C2020   1.511       .  S
C1842      H1845   1.080       .  S
C1846      C1847   1.391       .  A
C1846      C1851   1.446       .  A
C1846      C1887   1.514       .  S
C1847      C1848   1.389       .  A
C1847      H1852   1.083       .  S
C1848      C1849   1.409       .  A
C1848      C1978   1.483       .  S
C1849      C1850   1.397       .  A
C1849      H1853   1.083       .  S
C1850      C1851   1.444       .  A
C1850      C1961   1.525       .  S
C1851      H1854   1.082       .  S
C1855      C1860   1.399       .  A
C1855      C1939   1.506       .  S
C1856      C1857   1.442   1_545  A
C1856      H1861   1.082   1_545  S
C1857      C1858   1.375       .  A
C1857      C1893   1.512       .  S
C1858      H1862   1.082       .  S
C1859      C1860   1.385       .  A
C1859      C2090   1.453       .  S
C1860      H1863   1.084       .  S
C1864      C1865   1.388       .  A
C1864      C1869   1.450       .  A
C1864      C1958   1.549       .  S
C1865      C1866   1.388       .  A
C1865      H1870   1.066       .  S
C1866      C1867   1.375       .  A
C1867      C1868   1.396       .  A
C1867      H1871   1.084       .  S
C1868      C1869   1.462       .  A
C1868      C1890   1.514       .  S
C1869      H1872   1.081       .  S
C1873      C1874   1.386       .  A
C1873      C1878   1.452       .  A
C1873      C1884   1.517       .  S
C1874      C1875   1.372       .  A
C1874      H1879   1.083       .  S
C1875      C1876   1.392       .  A
C1876      C1877   1.385       .  A
C1876      H1880   1.084   1_565  S
C1877      C1878   1.452       .  A
C1878      H1881   1.078       .  S
O1882     Cr1900   2.097       .  S
O1882      C1890   1.303       .  A
O1883     Cr1900   1.999       .  S
O1883      C1884   1.270       .  A
C1884      O1885   1.303       .  A
O1885     Cr1901   2.077       .  S
O1886     Cr1901   1.981       .  S
O1886      C1887   1.264       .  A
C1887      O1888   1.303       .  A
O1888     Cr1902   2.091       .  S
O1889     Cr1902   1.980       .  S
O1889      C1890   1.265       .  A
O1891     Cr1900   1.883   1_556  S
O1891      C2199   1.281       .  A
O1892     Cr1900   2.240   1_556  S
O1892      C2193   1.343       .  A
C1893      O2192   1.343       .  A
C1893      O2194   1.272       .  A
O1894     Cr1901   1.878   1_556  S
O1894      C2193   1.272       .  A
O1895     Cr1901   2.195   1_556  S
O1895      C2196   1.333       .  A
C1896      O2195   1.334       .  A
C1896      O2197   1.276       .  A
O1897     Cr1902   1.878   1_556  S
O1897      C2196   1.276       .  A
O1898     Cr1902   2.223   1_556  S
O1898      C2199   1.343       .  A
C1899      C1908   1.517       .  S
C1899      O2191   1.281       .  A
C1899      O2198   1.343       .  A
Cr1900     O1903   1.615       .  S
Cr1901     O1903   1.611       .  S
Cr1902     O1903   1.607       .  S
C1904      C1905   1.384       .  A
C1904      C1936   1.513       .  S
C1905      H1910   1.085       .  S
C1906      C1907   1.379       .  A
C1906      C2076   1.435       .  S
C1907      C1908   1.390       .  A
C1907      H1911   1.085       .  S
C1908      C1909   1.454       .  A
C1909      H1912   1.082       .  S
C1913      C1914   1.404       .  A
C1913      C1918   1.449       .  A
C1913      C1948   1.530       .  S
C1914      C1915   1.417       .  A
C1914      H1919   1.083       .  S
C1915      C1916   1.398       .  A
C1916      C1917   1.387       .  A
C1916      H1920   1.077       .  S
C1917      C1918   1.445       .  A
C1918      H1921   1.080       .  S
C1922      C1923   1.398       .  A
C1922      C1927   1.462       .  A
C1922      C1945   1.547       .  S
C1923      C1924   1.404   1_655  A
C1923      H1928   1.084       .  S
C1924      C1925   1.393       .  A
C1925      C1926   1.385   1_455  A
C1925      H1929   1.085       .  S
C1926      C1927   1.454       .  A
C1927      H1930   1.079       .  S
O1931     Cr1949   2.107       .  S
O1931      C1939   1.303       .  A
O1932     Cr1949   1.976       .  S
O1932      C1933   1.266       .  A
C1933      O1934   1.300       .  A
O1934     Cr1950   2.094       .  S
O1935     Cr1950   1.975       .  S
O1935      C1936   1.264       .  A
C1936      O1937   1.305       .  A
O1937     Cr1951   2.108       .  S
O1938     Cr1951   1.967       .  S
O1938      C1939   1.266       .  A
O1940     Cr1949   1.877       .  S
O1940      C1948   1.279       .  A
O1941     Cr1949   2.248       .  S
O1941      C1942   1.343       .  A
C1942      O1943   1.282       .  A
O1943     Cr1950   1.874       .  S
O1944     Cr1950   2.273       .  S
O1944      C1945   1.352       .  A
C1945      O1946   1.277       .  A
O1946     Cr1951   1.884       .  S
O1947     Cr1951   2.253       .  S
O1947      C1948   1.347       .  A
Cr1949     O1952   1.616       .  S
Cr1950     O1952   1.608       .  S
Cr1951     O1952   1.609       .  S
O1953     Cr1971   2.102       .  S
O1953      C1961   1.304       .  A
C1955      O1956   1.304       .  A
O1956     Cr1972   2.084       .  S
O1957     Cr1972   2.029       .  S
O1957      C1958   1.274       .  A
O1960     Cr1973   1.988   1_565  S
O1960      C1961   1.266       .  A
O1962     Cr1971   1.858       .  S
O1962      C1970   1.274       .  A
O1963      C1964   1.342   1_565  A
O1965     Cr1972   1.890       .  S
O1966     Cr1972   2.240       .  S
O1966      C1967   1.344       .  A
O1969     Cr1973   2.214   1_565  S
O1969      C1970   1.339       .  A
C1975      C1976   1.434       .  A
C1975      C1980   1.428       .  A
C1976      C1977   1.403       .  A
C1976      C1981   1.435       .  S
C1977      C1978   1.391       .  A
C1977      C1984   1.440       .  S
C1978      C1979   1.399       .  A
C1979      C1980   1.399       .  A
C1979      C1982   1.447       .  S
C1980      C1983   1.452       .  S
C1981      N1988   1.153       .  T
C1982      N1987   1.157       .  T
C1983      N1985   1.158       .  T
C1984      N1986   1.154       .  T
C1989      C1990   1.410       .  A
C1989      C1994   1.393       .  A
C1990      C1991   1.393       .  A
C1990      C1995   1.452       .  S
C1991      C1992   1.419       .  A
C1991      C1998   1.451       .  S
C1992      C1993   1.442       .  A
C1993      C1994   1.412       .  A
C1994      C1997   1.446       .  S
C1995      N2002   1.158       .  T
C1996      N2001   1.158       .  T
C1997      N1999   1.157   1_655  T
C1998      N2000   1.156       .  T
C2003      C2004   1.418       .  A
C2003      C2008   1.410       .  A
C2004      C2005   1.391       .  A
C2004      C2009   1.449       .  S
C2005      C2006   1.402       .  A
C2005      C2012   1.450       .  S
C2006      C2007   1.395       .  A
C2007      C2008   1.383       .  A
C2007      C2010   1.439       .  S
C2008      C2011   1.453       .  S
C2009      N2016   1.156       .  T
C2010      N2015   1.151       .  T
C2011      N2013   1.157       .  T
C2017      C2018   1.435       .  A
C2017      C2022   1.417       .  A
C2018      C2019   1.394       .  A
C2018      C2023   1.449       .  S
C2019      C2020   1.388       .  A
C2019      C2026   1.439       .  S
C2020      C2021   1.416       .  A
C2021      C2022   1.409       .  A
C2021      C2024   1.448       .  S
C2022      C2025   1.449       .  S
C2023      N2030   1.158       .  T
C2024      N2029   1.157       .  T
C2025      N2027   1.157       .  T
C2026      N2028   1.154       .  T
C2031      C2032   1.400       .  A
C2031      C2036   1.387       .  A
C2032      C2033   1.397       .  A
C2032      C2037   1.440       .  S
C2033      C2034   1.424       .  A
C2033      C2040   1.450       .  S
C2034      C2035   1.432       .  A
C2035      C2036   1.402       .  A
C2035      C2038   1.447       .  S
C2036      C2039   1.435       .  S
C2037      N2044   1.154       .  T
C2038      N2043   1.156       .  T
C2040      N2042   1.156       .  T
C2045      C2046   1.390       .  A
C2045      C2050   1.415       .  A
C2046      C2047   1.397       .  A
C2046      C2051   1.447       .  S
C2047      C2048   1.429       .  A
C2047      C2054   1.447       .  S
C2048      C2049   1.389       .  A
C2049      C2050   1.390       .  A
C2049      C2052   1.450       .  S
C2051      N2058   1.155       .  T
C2052      N2057   1.156       .  T
C2053      N2055   1.148       .  T
C2054      N2056   1.155       .  T
C2059      C2360   1.378       .  A
C2059      C2064   1.421       .  A
C2059      C2105   1.460       .  S
C2060      C2359   1.378       .  A
C2060      C2061   1.390       .  A
C2060      C2065   1.439       .  S
C2061      C2362   1.416   1_554  A
C2061      C2068   1.440       .  S
C2062      C2361   1.416       .  A
C2062      C2063   1.395       .  A
C2063      C2064   1.392       .  A
C2063      C2066   1.454       .  S
C2064      C2067   1.440       .  S
C2065      N2072   1.155       .  T
C2066      N2071   1.157       .  T
C2067      N2069   1.156   1_655  T
C2068      N2070   1.154       .  T
C2073      C2374   1.403       .  A
C2073      C2101   1.455       .  S
C2074      C2373   1.403       .  A
C2074      C2075   1.394       .  A
C2074      C2079   1.449       .  S
C2075      C2376   1.404   1_554  A
C2075      C2082   1.446       .  S
C2076      C2375   1.405       .  A
C2077      C2078   1.389       .  A
C2077      C2080   1.457   1_655  S
C2078      C2081   1.441       .  S
C2079      N2086   1.157       .  T
C2080      N2085   1.157       .  T
C2081      N2083   1.157   1_655  T
C2082      N2084   1.156       .  T
C2087      C2392   1.418       .  A
C2088      C2089   1.379       .  A
C2088      C2093   1.456       .  S
C2089      C2096   1.462       .  S
C2090      C2091   1.404       .  A
C2091      C2392   1.407       .  A
C2091      C2394   1.450       .  S
C2092      C2387   1.418       .  A
C2092      C2391   1.407       .  A
C2092      C2095   1.447       .  S
C2093      N2100   1.158       .  T
C2094      C2391   1.450       .  S
C2094      N2099   1.157       .  T
C2095      N2097   1.156       .  T
C2096      N2098   1.157       .  T
C2102      C2103   1.410       .  A
C2102      H2107   1.083       .  S
C2103      C2387   1.481       .  S
C2104      H2108   1.076   1_655  S
C2105      C2106   1.384       .  A
C2106      H2109   1.086       .  S
C2110      C2111   1.392       .  A
C2110      C2115   1.403       .  A
C2110      C2334   1.492       .  S
C2111      C2112   1.379       .  A
C2111      H2116   1.083       .  S
C2112      C2113   1.391       .  A
C2112      C2348   1.465       .  S
C2113      C2114   1.396       .  A
C2113      H2117   1.083       .  S
C2114      C2115   1.419       .  A
C2114      C2317   1.502       .  S
C2115      H2118   1.077       .  S
C2119      C2120   1.393       .  A
C2119      C2124   1.431       .  A
C2119      C2289   1.493       .  S
C2120      C2121   1.398       .  A
C2120      H2125   1.077       .  S
C2121      C2122   1.390       .  A
C2121      C2303   1.462       .  S
C2122      C2123   1.393       .  A
C2122      H2126   1.067       .  S
C2123      C2124   1.412       .  A
C2123      C2275   1.513       .  S
C2124      H2127   1.082       .  S
C2128      C2129   1.385       .  A
C2128      C2133   1.440       .  A
C2128      C2233   1.503       .  S
C2129      C2130   1.376       .  A
C2129      H2134   1.085       .  S
C2130      C2131   1.382       .  A
C2130      C2362   1.446       .  S
C2131      C2132   1.392       .  A
C2131      H2135   1.085       .  S
C2132      C2133   1.447       .  A
C2132      C2196   1.506       .  S
C2133      H2136   1.082       .  S
C2137      C2138   1.433       .  A
C2137      C2142   1.416       .  A
C2137      C2242   1.534       .  S
C2138      C2139   1.424       .  A
C2138      H2143   1.076       .  S
C2139      C2140   1.373       .  A
C2139      C2270   1.503       .  S
C2140      C2141   1.399       .  A
C2140      H2144   1.075       .  S
C2141      C2142   1.430       .  A
C2141      C2320   1.511       .  S
C2142      H2145   1.080       .  S
C2146      C2147   1.391       .  A
C2146      C2151   1.446       .  A
C2146      C2187   1.514       .  S
C2147      C2148   1.389       .  A
C2147      H2152   1.083       .  S
C2148      C2149   1.409       .  A
C2148      C2278   1.484       .  S
C2149      C2150   1.397       .  A
C2149      H2153   1.083       .  S
C2150      C2151   1.444       .  A
C2150      C2261   1.525       .  S
C2151      H2154   1.082       .  S
C2155      C2160   1.399       .  A
C2155      C2239   1.506       .  S
C2156      C2157   1.442   1_545  A
C2156      H2161   1.082   1_545  S
C2157      C2158   1.375       .  A
C2157      C2193   1.512       .  S
C2158      H2162   1.082   1_556  S
C2159      C2160   1.385       .  A
C2159      C2390   1.453   1_556  S
C2160      H2163   1.084       .  S
C2164      C2165   1.388       .  A
C2164      C2169   1.450       .  A
C2164      C2258   1.549       .  S
C2165      C2166   1.388       .  A
C2165      H2170   1.066       .  S
C2166      C2167   1.375       .  A
C2167      C2168   1.396       .  A
C2167      H2171   1.084       .  S
C2168      C2169   1.462       .  A
C2168      C2190   1.514       .  S
C2169      H2172   1.081       .  S
C2173      C2174   1.386       .  A
C2173      C2178   1.452       .  A
C2173      C2184   1.517       .  S
C2174      C2175   1.372       .  A
C2174      H2179   1.083       .  S
C2175      C2176   1.392       .  A
C2176      C2177   1.385       .  A
C2176      H2180   1.084   1_565  S
C2177      C2178   1.452       .  A
C2178      H2181   1.078       .  S
O2182     Cr2200   2.097       .  S
O2182      C2190   1.303       .  A
O2183     Cr2200   1.999       .  S
O2183      C2184   1.270       .  A
C2184      O2185   1.303       .  A
O2185     Cr2201   2.077       .  S
O2186     Cr2201   1.981       .  S
O2186      C2187   1.264       .  A
C2187      O2188   1.303       .  A
O2188     Cr2202   2.091       .  S
O2189     Cr2202   1.980       .  S
O2189      C2190   1.265       .  A
O2191     Cr2200   1.883       .  S
O2192     Cr2200   2.240       .  S
O2194     Cr2201   1.878       .  S
O2195     Cr2201   2.195       .  S
O2197     Cr2202   1.878       .  S
O2198     Cr2202   2.223       .  S
C2199      C2208   1.517       .  S
Cr2200     O2203   1.615       .  S
Cr2201     O2203   1.611       .  S
Cr2202     O2203   1.607       .  S
C2204      C2205   1.384       .  A
C2204      C2236   1.513       .  S
C2205      H2210   1.085       .  S
C2206      C2207   1.379       .  A
C2206      C2376   1.435       .  S
C2207      C2208   1.390       .  A
C2207      H2211   1.085       .  S
C2208      C2209   1.454       .  A
C2209      H2212   1.082       .  S
C2213      C2214   1.404       .  A
C2213      C2218   1.449       .  A
C2213      C2248   1.530       .  S
C2214      C2215   1.417       .  A
C2214      H2219   1.083       .  S
C2215      C2216   1.398       .  A
C2216      C2217   1.387       .  A
C2216      H2220   1.077       .  S
C2217      C2218   1.445       .  A
C2218      H2221   1.080       .  S
C2222      C2223   1.398       .  A
C2222      C2227   1.462       .  A
C2222      C2245   1.547       .  S
C2223      C2224   1.404   1_655  A
C2223      H2228   1.084       .  S
C2224      C2225   1.393       .  A
C2225      C2226   1.385   1_455  A
C2225      H2229   1.085       .  S
C2226      C2227   1.454       .  A
C2227      H2230   1.079       .  S
O2231     Cr2249   2.107       .  S
O2231      C2239   1.303       .  A
O2232     Cr2249   1.976       .  S
O2232      C2233   1.266       .  A
C2233      O2234   1.300       .  A
O2234     Cr2250   2.094       .  S
O2235     Cr2250   1.975       .  S
O2235      C2236   1.264       .  A
C2236      O2237   1.305       .  A
O2237     Cr2251   2.108       .  S
O2238     Cr2251   1.967       .  S
O2238      C2239   1.266       .  A
O2240     Cr2249   1.877       .  S
O2240      C2248   1.279       .  A
O2241     Cr2249   2.248       .  S
O2241      C2242   1.343       .  A
C2242      O2243   1.282       .  A
O2243     Cr2250   1.874       .  S
O2244     Cr2250   2.273       .  S
O2244      C2245   1.352       .  A
C2245      O2246   1.277       .  A
O2246     Cr2251   1.884       .  S
O2247     Cr2251   2.253       .  S
O2247      C2248   1.347       .  A
Cr2249     O2252   1.616       .  S
Cr2250     O2252   1.608       .  S
Cr2251     O2252   1.609       .  S
O2253     Cr2271   2.102       .  S
O2253      C2261   1.304       .  A
C2255      O2256   1.304       .  A
O2256     Cr2272   2.084       .  S
O2257     Cr2272   2.029       .  S
O2257      C2258   1.274       .  A
O2260     Cr2273   1.988   1_565  S
O2260      C2261   1.266       .  A
O2262     Cr2271   1.858       .  S
O2262      C2270   1.274       .  A
O2263      C2264   1.342   1_565  A
O2265     Cr2272   1.890       .  S
O2266     Cr2272   2.240       .  S
O2266      C2267   1.344       .  A
O2269     Cr2273   2.214   1_565  S
O2269      C2270   1.339       .  A
C2275      C2276   1.434       .  A
C2275      C2280   1.428       .  A
C2276      C2277   1.403       .  A
C2276      C2281   1.435       .  S
C2277      C2278   1.391       .  A
C2277      C2284   1.440       .  S
C2278      C2279   1.399       .  A
C2279      C2280   1.399       .  A
C2279      C2282   1.447       .  S
C2280      C2283   1.452       .  S
C2281      N2288   1.153       .  T
C2282      N2287   1.157       .  T
C2283      N2285   1.158       .  T
C2284      N2286   1.154       .  T
C2289      C2290   1.410       .  A
C2289      C2294   1.393       .  A
C2290      C2291   1.393       .  A
C2290      C2295   1.452       .  S
C2291      C2292   1.419       .  A
C2291      C2298   1.451       .  S
C2292      C2293   1.442       .  A
C2293      C2294   1.412       .  A
C2294      C2297   1.446       .  S
C2295      N2302   1.158       .  T
C2296      N2301   1.158       .  T
C2297      N2299   1.157   1_655  T
C2298      N2300   1.156       .  T
C2303      C2304   1.418       .  A
C2303      C2308   1.410       .  A
C2304      C2305   1.391       .  A
C2304      C2309   1.449       .  S
C2305      C2306   1.402       .  A
C2305      C2312   1.450       .  S
C2306      C2307   1.395       .  A
C2307      C2308   1.383       .  A
C2307      C2310   1.439       .  S
C2308      C2311   1.453       .  S
C2309      N2316   1.156       .  T
C2310      N2315   1.151       .  T
C2311      N2313   1.157       .  T
C2317      C2318   1.435       .  A
C2317      C2322   1.417       .  A
C2318      C2319   1.394       .  A
C2318      C2323   1.449       .  S
C2319      C2320   1.388       .  A
C2319      C2326   1.439       .  S
C2320      C2321   1.416       .  A
C2321      C2322   1.409       .  A
C2321      C2324   1.448       .  S
C2322      C2325   1.449       .  S
C2323      N2330   1.158       .  T
C2324      N2329   1.157       .  T
C2325      N2327   1.157       .  T
C2326      N2328   1.154       .  T
C2331      C2332   1.400       .  A
C2331      C2336   1.387       .  A
C2332      C2333   1.397       .  A
C2332      C2337   1.440       .  S
C2333      C2334   1.424       .  A
C2333      C2340   1.450       .  S
C2334      C2335   1.432       .  A
C2335      C2336   1.402       .  A
C2335      C2338   1.447       .  S
C2336      C2339   1.435       .  S
C2337      N2344   1.154       .  T
C2338      N2343   1.156       .  T
C2340      N2342   1.156       .  T
C2345      C2346   1.390       .  A
C2345      C2350   1.415       .  A
C2346      C2347   1.397       .  A
C2346      C2351   1.447       .  S
C2347      C2348   1.429       .  A
C2347      C2354   1.447       .  S
C2348      C2349   1.389       .  A
C2349      C2350   1.390       .  A
C2349      C2352   1.450       .  S
C2351      N2358   1.155       .  T
C2352      N2357   1.156       .  T
C2353      N2355   1.148       .  T
C2354      N2356   1.155       .  T
C2359      C2364   1.421   1_554  A
C2360      C2361   1.390       .  A
C2360      C2365   1.439       .  S
C2361      C2368   1.440       .  S
C2362      C2363   1.395       .  A
C2363      C2364   1.392       .  A
C2363      C2366   1.454       .  S
C2364      C2367   1.440       .  S
C2365      N2372   1.155       .  T
C2366      N2371   1.157       .  T
C2367      N2369   1.156   1_655  T
C2368      N2370   1.154       .  T
C2374      C2375   1.394       .  A
C2374      C2379   1.449       .  S
C2375      C2382   1.446       .  S
C2377      C2378   1.389       .  A
C2377      C2380   1.457   1_655  S
C2378      C2381   1.441       .  S
C2379      N2386   1.157       .  T
C2380      N2385   1.157       .  T
C2381      N2383   1.157   1_655  T
C2382      N2384   1.156       .  T
C2388      C2389   1.379       .  A
C2388      C2393   1.456       .  S
C2389      C2396   1.462   1_554  S
C2390      C2391   1.404       .  A
C2392      C2395   1.447       .  S
C2393      N2400   1.158       .  T
C2394      N2399   1.157       .  T
C2395      N2397   1.156       .  T
C2396      N2398   1.157       .  T
