geometry optimzed in LAMMPS
_audit_creation_date              2020-12-01 
_audit_creation_method            'lammps2cif' 
_symmetry_space_group_name_H-M    'P1' 
_symmetry_Int_Tables_number       1 
_symmetry_cell_setting            triclinic 
loop_ 
_symmetry_equiv_pos_as_xyz 
  x,y,z 
_cell_length_a                    29.25752819 
_cell_length_b                    29.902014933295206 
_cell_length_c                    29.17836167099722 
_cell_angle_alpha                 90.24167243751731 
_cell_angle_beta                  90.40848967641178 
_cell_angle_gamma                 89.76211637225008 
loop_ 
_atom_site_label 
_atom_site_type_symbol 
_atom_site_fract_x 
_atom_site_fract_y 
_atom_site_fract_z 
_atom_site_charge 
N1          N  0.60195660  0.55498348  0.92547274    -0.06300
N2          N  0.62899437  0.56171137  0.89010839    -0.58500
N3          N  0.56799428  0.58422451  0.03126953    -0.06000
N4          N  0.57136080  0.61090619  0.06720928    -0.60600
N5          N  0.60138676  0.55468460  0.03130337    -0.05600
N6          N  0.62815014  0.56033779  0.06735608    -0.58400
N7          N  0.56834466  0.58429290  0.92549373    -0.05300
N8          N  0.57144534  0.61129834  0.89007025    -0.60900
C9          C  0.60914928  0.59665653  0.86819412     0.95800
C10         C  0.60867705  0.59517372  0.08942479     0.95600
N11         N  0.43025740  0.54892648  0.02832102    -0.06500
N12         N  0.40097500  0.55445470  0.06213176    -0.59000
N13         N  0.46241224  0.58032121  0.92478523    -0.04600
N14         N  0.45539153  0.60890168  0.89128535    -0.60300
N15         N  0.43232702  0.54779057  0.92309550    -0.06600
N16         N  0.40412258  0.55348643  0.88805617    -0.59300
N17         N  0.46116556  0.58073196  0.02918589    -0.04300
N18         N  0.45373168  0.60858999  0.06347221    -0.60400
Mn19       Mn  0.51508989  0.58389323  0.97782979     1.18400
C20         C  0.41594206  0.59199035  0.08331102     0.97900
C21         C  0.41926369  0.59160374  0.86857452     0.98600
N22         N  0.60701736  0.45137681  0.03184419    -0.06600
N23         N  0.63455257  0.44808854  0.06767096    -0.62900
N24         N  0.57743277  0.41733853  0.92679421    -0.05400
N25         N  0.58395139  0.39015417  0.89171167    -0.63600
N26         N  0.60714976  0.45019088  0.92621703    -0.06100
N27         N  0.63442187  0.44625806  0.89063647    -0.63200
N28         N  0.57661493  0.41914869  0.03207015    -0.05000
N29         N  0.58276298  0.39302379  0.06787293    -0.63800
Mn30       Mn  0.60622281  0.50293383  0.97854534     1.10700
C31         C  0.61892878  0.41156940  0.08953718     0.99100
C32         C  0.61938248  0.40882127  0.86943496     0.99200
N33         N  0.43768905  0.44217247  0.92415448    -0.06100
N34         N  0.41071931  0.43417052  0.88861840    -0.61500
N35         N  0.47024554  0.41534916  0.03128768    -0.05400
N36         N  0.46726985  0.39036908  0.06831098    -0.58200
N37         N  0.43652669  0.44456239  0.02978038    -0.06700
N38         N  0.40974037  0.43996784  0.06559633    -0.61000
N39         N  0.47125382  0.41279834  0.92560565    -0.05700
N40         N  0.46819716  0.38444832  0.89104296    -0.58200
Mn41       Mn  0.43232599  0.49558475  0.97606410     1.20200
Mn42       Mn  0.52387474  0.41442873  0.97901751     1.10100
Cl43       Cl  0.51932216  0.49919630  0.97774277    -0.86200
C44         C  0.43054763  0.39837136  0.86826921     0.96100
C45         C  0.42958830  0.40636420  0.08937459     0.95900
N46         N  0.47477449  0.94865616  0.38513638    -0.06300
N47         N  0.47089249  0.91453772  0.35650572    -0.58500
N48         N  0.43720923  0.04971560  0.41711049    -0.06000
N49         N  0.40865798  0.08366132  0.41239706    -0.60600
N50         N  0.46956607  0.05161370  0.38612946    -0.05600
N51         N  0.46398055  0.08700127  0.35983797    -0.58400
N52         N  0.44314835  0.94683635  0.41682648    -0.05300
N53         N  0.41711553  0.91140246  0.41069918    -0.60900
C54         C  0.43473181  0.89184556  0.37293881     0.95800
C55         C  0.42565246  0.10628187  0.37637450     0.95600
N56         N  0.46655113  0.05176938  0.55659722    -0.06500
N57         N  0.45805953  0.08555173  0.58455481    -0.59000
N58         N  0.44298965  0.94652323  0.52376737    -0.04600
N59         N  0.41794117  0.91022536  0.52820514    -0.60300
N60         N  0.47417519  0.94864902  0.55642040    -0.06600
N61         N  0.47093573  0.91382122  0.58388531    -0.59300
N62         N  0.43527060  0.04962858  0.52409237    -0.04300
N63         N  0.40487311  0.08201119  0.52903170    -0.60400
Mn64       Mn  0.43796171  0.99804826  0.47045118     1.18400
C65         C  0.41946315  0.10383121  0.56697861     0.97900
C66         C  0.43610810  0.89002919  0.56546011     0.98600
N67         N  0.57590027  0.05649966  0.38709171    -0.06600
N68         N  0.57972542  0.09077300  0.35906420    -0.62900
N69         N  0.61273325  0.95529108  0.42032552    -0.05400
N70         N  0.64089634  0.92090409  0.41629579    -0.63600
N71         N  0.58100463  0.95383554  0.38816189    -0.06100
N72         N  0.58661655  0.91848549  0.36172551    -0.63200
N73         N  0.60740096  0.05822897  0.41938686    -0.05000
N74         N  0.63336908  0.09375888  0.41421011    -0.63800
Mn75       Mn  0.52536853  0.00268402  0.38491921     1.10700
C76         C  0.61573983  0.11344594  0.37645466     0.99100
C77         C  0.62388027  0.89838458  0.37973762     0.99200
N78         N  0.58067366  0.95608496  0.55911452    -0.06100
N79         N  0.58756697  0.92253389  0.58750145    -0.61500
N80         N  0.60564139  0.06022531  0.52591331    -0.05400
N81         N  0.63071460  0.09654713  0.53056641    -0.58200
N82         N  0.57372834  0.05900441  0.55744495    -0.06700
N83         N  0.57666447  0.09439986  0.58450767    -0.61000
N84         N  0.61303850  0.95735786  0.52812877    -0.05700
N85         N  0.64294177  0.92479457  0.53500110    -0.58200
Mn86       Mn  0.52375400  0.00396097  0.55917580     1.20200
Mn87       Mn  0.61153389  0.00774740  0.47345343     1.10100
Cl88       Cl  0.52467040  0.00307522  0.47204310    -0.86200
C89         C  0.62670273  0.90369205  0.57238626     0.96100
C90         C  0.61230710  0.11737736  0.56722593     0.95900
N91         N  0.96943783  0.55787785  0.39456722    -0.06300
N92         N  0.93654588  0.56396443  0.36410237    -0.58500
N93         N  0.07232592  0.59156311  0.42939019    -0.06000
N94         N  0.10633776  0.61995009  0.42442373    -0.60600
N95         N  0.07374472  0.56040252  0.39741507    -0.05600
N96         N  0.10864016  0.56689721  0.36994132    -0.58400
N97         N  0.96780367  0.58893851  0.42658073    -0.05300
N98         N  0.93372282  0.61688864  0.41871881    -0.60900
C99         C  0.91490110  0.60087653  0.37965706     0.95800
C100        C  0.12831545  0.60416980  0.38710645     0.95600
N101        N  0.07108173  0.56076954  0.56832021    -0.06500
N102        N  0.10587506  0.56686617  0.59656754    -0.59000
N103        N  0.96518281  0.58830226  0.53415236    -0.04600
N104        N  0.92926257  0.61460316  0.53943140    -0.60300
N105        N  0.96632471  0.55748302  0.56618615    -0.06600
N106        N  0.93134818  0.56226393  0.59406599    -0.59300
N107        N  0.07004754  0.59206577  0.53681643    -0.04300
N108        N  0.10399773  0.62034532  0.54300919    -0.60400
Mn109      Mn  0.01870346  0.59186593  0.48180441     1.18400
C110        C  0.12599181  0.60401302  0.58020710     0.97900
C111        C  0.90873257  0.59809371  0.57708881     0.98600
N112        N  0.07716642  0.45547790  0.39659198    -0.06600
N113        N  0.11232363  0.45002109  0.36899865    -0.62900
N114        N  0.97289776  0.42200270  0.42711433    -0.05400
N115        N  0.93889462  0.39367953  0.42181765    -0.63600
N116        N  0.97178275  0.45280326  0.39507849    -0.06100
N117        N  0.93676487  0.44612042  0.36711601    -0.63200
N118        N  0.07723888  0.42438935  0.42826436    -0.05000
N119        N  0.11209103  0.39688634  0.42291818    -0.63800
Mn120      Mn  0.02303696  0.50660812  0.39421726     1.10700
C121        C  0.13372340  0.41348283  0.38610082     0.99100
C122        C  0.91698127  0.40901990  0.38423514     0.99200
N123        N  0.97033177  0.45301499  0.56545193    -0.06100
N124        N  0.93470182  0.44648986  0.59202987    -0.61500
N125        N  0.07721339  0.42583511  0.53449965    -0.05400
N126        N  0.11377458  0.40034600  0.53884478    -0.58200
N127        N  0.07587290  0.45622701  0.56716520    -0.06700
N128        N  0.11153231  0.45179329  0.59482872    -0.61000
N129        N  0.97237734  0.42200682  0.53349500    -0.05700
N130        N  0.93848334  0.39352569  0.53765213    -0.58200
Mn131      Mn  0.02087491  0.50681560  0.56864486     1.20200
Mn132      Mn  0.02497130  0.42214038  0.48094825     1.10100
Cl133      Cl  0.02185868  0.50700994  0.48137928    -0.86200
C134        C  0.91558102  0.40904594  0.57438809     0.96700
C135        C  0.13496795  0.41715566  0.57623486     0.95900
C136        C  0.75152261  0.33251471  0.31371031     0.02900
C137        C  0.73288207  0.35407810  0.27541053    -0.13200
C138        C  0.69324089  0.33762045  0.25456398     0.00400
C139        C  0.67261948  0.29892822  0.27134109    -0.11800
C140        C  0.69115559  0.27711465  0.30954795     0.02900
C141        C  0.73090269  0.29374830  0.33061365    -0.11200
H142        H  0.74930221  0.38356173  0.26177079     0.08500
H143        H  0.64238572  0.28566543  0.25451668     0.06000
H144        H  0.74569168  0.27662116  0.35987131     0.05900
C145        C  0.75424314  0.67828593  0.30051079     0.02900
C146        C  0.73719832  0.71760644  0.32011715    -0.13200
C147        C  0.69861397  0.73841334  0.30123656     0.00400
C148        C  0.67646108  0.71919542  0.26333020    -0.11800
C149        C  0.69403554  0.68016567  0.24336039     0.02900
C150        C  0.73295665  0.65975084  0.26195149    -0.11200
H151        H  0.75378242  0.73179853  0.35013783     0.08500
H152        H  0.64601740  0.73480072  0.24914503     0.06000
H153        H  0.74647998  0.62940969  0.24662089     0.05900
C154        C  0.69337194  0.33098491  0.70543934     0.02900
C155        C  0.73358997  0.34901121  0.68787524    -0.13200
C156        C  0.75142105  0.33307268  0.64657825     0.00400
C157        C  0.73066843  0.29665157  0.62445019    -0.11800
C158        C  0.69010397  0.27870208  0.64159440     0.02900
C159        C  0.67094301  0.29677665  0.68148041    -0.11200
H160        H  0.75112605  0.37529364  0.70657505     0.08500
H161        H  0.74624642  0.28221748  0.59419557     0.06000
H162        H  0.63901392  0.28364849  0.69418631     0.05900
C163        C  0.35495401  0.72842455  0.30723480     0.02900
C164        C  0.31581839  0.71195078  0.32888448    -0.13200
C165        C  0.29429787  0.67336337  0.31204848     0.00400
C166        C  0.31159609  0.65162369  0.27320184    -0.11800
C167        C  0.35064759  0.66798121  0.25153932     0.02900
C168        C  0.37186874  0.70665699  0.26828727    -0.11200
H169        H  0.30194527  0.72932377  0.35834171     0.08500
H170        H  0.29454143  0.62230714  0.25966900     0.06000
H171        H  0.40143291  0.72007382  0.25075787     0.05900
C172        C  0.35082305  0.73919857  0.65073893     0.02900
C173        C  0.31096498  0.72145302  0.63108689    -0.13200
C174        C  0.28871962  0.68564008  0.65204380     0.00400
C175        C  0.30734995  0.66667929  0.69174018    -0.11800
C176        C  0.34779598  0.68337232  0.71092633     0.02900
C177        C  0.36976301  0.71954246  0.69014116    -0.11200
H178        H  0.29745570  0.73549291  0.59960360     0.08500
H179        H  0.29029491  0.63872358  0.70776488     0.06000
H180        H  0.40156319  0.73215680  0.70420825     0.05900
C181        C  0.34991735  0.31633206  0.70979032     0.02900
C182        C  0.36602275  0.27832852  0.68674165    -0.13200
C183        C  0.34394526  0.26343363  0.64672390     0.00400
C184        C  0.30516099  0.28621845  0.63045301    -0.11800
C185        C  0.28924647  0.32450107  0.65338252     0.02900
C186        C  0.31237220  0.33998574  0.69235751    -0.11200
H187        H  0.39548473  0.26031523  0.69998342     0.08500
H188        H  0.28740733  0.27421630  0.60011187     0.06000
H189        H  0.30110736  0.37037077  0.70931003     0.05900
C190        C  0.68841647  0.68067581  0.71038533     0.02900
C191        C  0.67222705  0.72172180  0.69354458    -0.13200
C192        C  0.69220801  0.74081123  0.65466974     0.00400
C193        C  0.72992591  0.71992743  0.63443881    -0.11800
C194        C  0.74492080  0.67806254  0.64963585     0.02900
C195        C  0.72366994  0.65835089  0.68740287    -0.11200
H196        H  0.64466604  0.73892987  0.71096929     0.08500
H197        H  0.74777437  0.73666371  0.60712811     0.06000
H198        H  0.73536775  0.62604211  0.69960921     0.05900
C199        C  0.35401353  0.27293738  0.30886968     0.02900
C200        C  0.31667755  0.29260554  0.33128174    -0.13200
C201        C  0.29537817  0.33070264  0.31297120     0.00400
C202        C  0.31364815  0.35081272  0.27390147    -0.11800
C203        C  0.35055455  0.33106440  0.25115361     0.02900
C204        C  0.37008708  0.29170538  0.26824673    -0.11200
H205        H  0.30425192  0.27813596  0.36274894     0.08500
H206        H  0.29862943  0.38142617  0.26079174     0.06000
H207        H  0.39741757  0.27547050  0.24953689     0.05900
C208        C  0.17102049  0.37535875  0.63881959    -0.06000
C209        C  0.17589083  0.39675758  0.59663403    -0.00100
C210        C  0.21812831  0.39519838  0.57339540    -0.08600
C211        C  0.25472852  0.37193078  0.59365949    -0.06000
C212        C  0.24959374  0.34955697  0.63539157    -0.00100
C213        C  0.20708910  0.35074068  0.65835053    -0.08600
C214        C  0.19918836  0.32461386  0.70205033     0.61800
H215        H  0.13807120  0.37673883  0.65549042     0.12500
H216        H  0.28751036  0.37023523  0.57667993     0.12500
C217        C  0.22433655  0.41776814  0.52743144     0.62100
F218        F  0.15386928  0.32610681  0.71533648    -0.23100
F219        F  0.22520623  0.34231717  0.73726287    -0.20400
F220        F  0.21110893  0.28026004  0.69537260    -0.20100
F221        F  0.26946043  0.41683163  0.51344993    -0.20200
F222        F  0.21071823  0.46192337  0.53035092    -0.20500
F223        F  0.19819776  0.39624189  0.49453517    -0.23200
C224        C  0.16550189  0.66781819  0.61515261    -0.06000
C225        C  0.16774168  0.62368085  0.59930692    -0.00100
C226        C  0.20971422  0.60014454  0.59980036    -0.08600
C227        C  0.24875261  0.62205814  0.61645686    -0.06000
C228        C  0.24666526  0.66636213  0.63229349    -0.00100
C229        C  0.20439301  0.68963099  0.63234635    -0.08600
C230        C  0.20013068  0.73705773  0.65045597     0.61800
H231        H  0.13288058  0.68508643  0.61389008     0.12500
H232        H  0.28137436  0.60477497  0.61737123     0.12500
C233        C  0.21337084  0.55281480  0.58128221     0.62100
F234        F  0.22068813  0.74056370  0.69316936    -0.23100
F235        F  0.15490381  0.75006560  0.65486217    -0.20400
F236        F  0.22078782  0.76600325  0.62034165    -0.20100
F237        F  0.19736688  0.55169803  0.53655372    -0.20200
F238        F  0.18769957  0.52427877  0.60782369    -0.20500
F239        F  0.25803017  0.53733162  0.58156250    -0.23200
C240        C  0.21014185  0.66978976  0.31403326    -0.06000
C241        C  0.25213969  0.65674670  0.33336103    -0.00100
C242        C  0.25327677  0.62651481  0.37054218    -0.08600
C243        C  0.21175876  0.61087539  0.38802552    -0.06000
C244        C  0.16996860  0.62377366  0.36854852    -0.00100
C245        C  0.16866352  0.65326303  0.33090150    -0.08600
C246        C  0.12359186  0.66652325  0.30865989     0.61800
H247        H  0.21023731  0.69242125  0.28514609     0.12500
H248        H  0.21154235  0.58780282  0.41655724     0.12500
C249        C  0.29810083  0.61047681  0.39110964     0.62100
F250        F  0.12970645  0.69581540  0.27262953    -0.23100
F251        F  0.09584389  0.68708855  0.34070525    -0.20400
F252        F  0.10184181  0.62882683  0.29183979    -0.20100
F253        F  0.32117199  0.64632621  0.40991471    -0.20200
F254        F  0.32468246  0.59090191  0.35749044    -0.20500
F255        F  0.29151856  0.57927427  0.42533493    -0.23200
C256        C  0.17293788  0.34916437  0.35151183    -0.06000
C257        C  0.17531902  0.39343044  0.36712918    -0.00100
C258        C  0.21728871  0.41654649  0.36680352    -0.08600
C259        C  0.25615238  0.39422059  0.35019208    -0.06000
C260        C  0.25385852  0.35000050  0.33393554    -0.00100
C261        C  0.21152036  0.32697722  0.33407194    -0.08600
C262        C  0.20647179  0.27985380  0.31485819     0.61800
H263        H  0.14031107  0.33222825  0.35276821     0.12500
H264        H  0.28870170  0.41128633  0.34922034     0.12500
C265        C  0.22098935  0.46418600  0.38468995     0.62100
F266        F  0.16106392  0.26726333  0.31153370    -0.23100
F267        F  0.22847807  0.24962559  0.34316937    -0.20400
F268        F  0.22499919  0.27735650  0.27143304    -0.20100
F269        F  0.20497265  0.46650363  0.42910332    -0.20200
F270        F  0.19530234  0.49250729  0.35734106    -0.20500
F271        F  0.26567976  0.47917060  0.38482065    -0.23200
C272        C  0.82277652  0.64847458  0.65918696    -0.06000
C273        C  0.78586464  0.65686688  0.62949372    -0.00100
C274        C  0.78881908  0.64448943  0.58259552    -0.08600
C275        C  0.82984173  0.62535748  0.56694076    -0.06000
C276        C  0.86666382  0.61701034  0.59677407    -0.00100
C277        C  0.86320313  0.62831123  0.64378202    -0.08600
C278        C  0.90230309  0.62046554  0.67736367     0.61800
H279        H  0.81963160  0.65816196  0.69483045     0.12500
H280        H  0.83342551  0.61639956  0.53112136     0.12500
C281        C  0.74881380  0.64985677  0.54941711     0.62100
F282        F  0.89323803  0.63849746  0.72015694    -0.23100
F283        F  0.94172019  0.64012723  0.66121506    -0.20400
F284        F  0.90949443  0.57507040  0.68274300    -0.20100
F285        F  0.74226019  0.69440319  0.53886891    -0.20200
F286        F  0.70940362  0.63303628  0.56863349    -0.20500
F287        F  0.75630081  0.62710096  0.50870685    -0.23200
C288        C  0.83208121  0.32652058  0.62402297    -0.06000
C289        C  0.79286418  0.35336536  0.62745928    -0.00100
C290        C  0.79356502  0.39819266  0.61181746    -0.08600
C291        C  0.83479276  0.41532573  0.59523484    -0.06000
C292        C  0.87397267  0.38852232  0.59211055    -0.00100
C293        C  0.87283458  0.34327001  0.60594573    -0.08600
C294        C  0.91458037  0.31312850  0.60232005     0.61800
H295        H  0.83036844  0.29217840  0.63556912     0.12500
H296        H  0.83665254  0.44977076  0.58399511     0.12500
C297        C  0.75095037  0.42748040  0.61131980     0.62100
F298        F  0.90748477  0.27197083  0.62254594    -0.23100
F299        F  0.95158370  0.33298201  0.62392678    -0.20400
F300        F  0.92476395  0.30580165  0.55669747    -0.20100
F301        F  0.74003477  0.44033619  0.65544286    -0.20200
F302        F  0.71463491  0.40432881  0.59218321    -0.20500
F303        F  0.75723918  0.46584192  0.58573659    -0.23200
C304        C  0.83345999  0.40326064  0.38350337    -0.06000
C305        C  0.87530883  0.38871717  0.36585038    -0.00100
C306        C  0.87691772  0.35408218  0.33288783    -0.08600
C307        C  0.83558474  0.33532994  0.31754546    -0.06000
C308        C  0.79354754  0.35033589  0.33468449    -0.00100
C309        C  0.79214141  0.38445383  0.36836350    -0.08600
C310        C  0.74721016  0.40060924  0.38820035     0.61800
H311        H  0.83350739  0.42941344  0.40927886     0.12500
H312        H  0.83563247  0.30935185  0.29158336     0.12500
C313        C  0.92218616  0.33758220  0.31407154     0.62100
F314        F  0.75348265  0.43425644  0.42033441    -0.23100
F315        F  0.72542055  0.36540440  0.40927852    -0.20400
F316        F  0.71949701  0.41716513  0.35369730    -0.20100
F317        F  0.94902894  0.32109027  0.34942300    -0.20200
F318        F  0.94475739  0.37256982  0.29334248    -0.20500
F319        F  0.91633742  0.30385794  0.28194548    -0.23200
C320        C  0.83180410  0.60643647  0.37340221    -0.06000
C321        C  0.87454552  0.62025449  0.35783100    -0.00100
C322        C  0.87806965  0.65208131  0.32243026    -0.08600
C323        C  0.83769764  0.67046940  0.30430427    -0.06000
C324        C  0.79489550  0.65689411  0.32015649    -0.00100
C325        C  0.79143271  0.62397048  0.35451596    -0.08600
C326        C  0.74532885  0.60734217  0.37056514     0.61800
H327        H  0.83040513  0.58162025  0.40031336     0.12500
H328        H  0.83909976  0.69550064  0.27760489     0.12500
C329        C  0.92420616  0.66612060  0.30404948     0.62100
F330        F  0.74975421  0.57523252  0.40437003    -0.23100
F331        F  0.72185367  0.58852650  0.33402523    -0.20400
F332        F  0.72007599  0.64257187  0.38809861    -0.20100
F333        F  0.94655546  0.62924250  0.28607020    -0.20200
F334        F  0.95045101  0.68418368  0.33906084    -0.20500
F335        F  0.91995022  0.69779310  0.26977776    -0.23200
C336        C  0.67221922  0.19873506  0.64663333    -0.06000
C337        C  0.66987720  0.23819647  0.62094278    -0.00100
C338        C  0.64738655  0.23839613  0.57782285    -0.08600
C339        C  0.62873375  0.19806496  0.56127214    -0.06000
C340        C  0.63091478  0.15871323  0.58723826    -0.00100
C341        C  0.65286867  0.15876932  0.63053356    -0.08600
C342        C  0.65657548  0.11655444  0.65906428     0.61800
H343        H  0.68939486  0.19962271  0.67965896     0.12500
H344        H  0.61191874  0.19697061  0.52806554     0.12500
C345        C  0.64184834  0.28116644  0.55038299     0.62100
F346        F  0.68247812  0.12313659  0.69838811    -0.23100
F347        F  0.67701114  0.08287698  0.63370204    -0.20400
F348        F  0.61345269  0.10306123  0.67206431    -0.20100
F349        F  0.68403067  0.29641881  0.53650137    -0.20200
F350        F  0.62108467  0.31361830  0.57710398    -0.20500
F351        F  0.61513902  0.27470071  0.51159769    -0.23200
C352        C  0.40612388  0.18511185  0.56543427    -0.06000
C353        C  0.39717714  0.14381750  0.58591317    -0.00100
C354        C  0.36832459  0.14142663  0.62440546    -0.08600
C355        C  0.35078589  0.18136566  0.64287123    -0.06000
C356        C  0.36071892  0.22288172  0.62322522    -0.00100
C357        C  0.38807744  0.22507752  0.58347927    -0.08600
C358        C  0.39874229  0.26943645  0.56090352     0.61800
H359        H  0.42792813  0.18578497  0.53561789     0.12500
H360        H  0.32946561  0.18062089  0.67303764     0.12500
C361        C  0.35586173  0.09675839  0.64524858     0.62100
F362        F  0.42746484  0.26415968  0.52374057    -0.23100
F363        F  0.41986112  0.29761181  0.59215153    -0.20400
F364        F  0.35872992  0.28919476  0.54548672    -0.20100
F365        F  0.39483875  0.07548276  0.66122624    -0.20200
F366        F  0.33511535  0.07017030  0.61230058    -0.20500
F367        F  0.32593994  0.10165742  0.68148704    -0.23200
C368        C  0.43466218  0.18628748  0.35990103    -0.06000
C369        C  0.40660126  0.14842996  0.35900825    -0.00100
C370        C  0.36181300  0.15114662  0.34082120    -0.08600
C371        C  0.34596736  0.19262735  0.32478823    -0.06000
C372        C  0.37377810  0.23072084  0.32607710    -0.00100
C373        C  0.41888718  0.22786259  0.34388412    -0.08600
C374        C  0.44984541  0.26848593  0.34691144     0.61800
H375        H  0.46903801  0.18300338  0.37358016     0.12500
H376        H  0.31168062  0.19570187  0.31084654     0.12500
C377        C  0.33160781  0.11011028  0.33711090     0.62100
F378        F  0.48939470  0.25948545  0.37158212    -0.23100
F379        F  0.42730039  0.30335287  0.36848979    -0.20400
F380        F  0.46243910  0.28170373  0.30350125    -0.20100
F381        F  0.32036803  0.09542656  0.38043082    -0.20200
F382        F  0.35452009  0.07636770  0.31404666    -0.20500
F383        F  0.29144095  0.11901636  0.31344850    -0.23200
C384        C  0.68412021  0.19506323  0.30668895    -0.06000
C385        C  0.66994314  0.23573254  0.32612562    -0.00100
C386        C  0.63587623  0.23635385  0.36027025    -0.08600
C387        C  0.61846330  0.19545803  0.37571624    -0.06000
C388        C  0.63353854  0.15485114  0.35708343    -0.00100
C389        C  0.66604855  0.15422606  0.32157727    -0.08600
C390        C  0.68179969  0.11045364  0.30031721     0.61800
H391        H  0.70971979  0.19561942  0.28007698     0.12500
H392        H  0.59308066  0.19478407  0.40253525     0.12500
C393        C  0.61799152  0.28002373  0.37987455     0.62100
F394        F  0.71242013  0.11720463  0.26509612    -0.23100
F395        F  0.64458953  0.08760015  0.28263273    -0.20400
F396        F  0.70294795  0.08441610  0.33336972    -0.20100
F397        F  0.59924875  0.30557585  0.34508584    -0.20200
F398        F  0.65334618  0.30332929  0.40041777    -0.20500
F399        F  0.58452172  0.27316271  0.41235526    -0.23200
C400        C  0.40530477  0.77065582  0.59532602    -0.06000
C401        C  0.37287895  0.77819861  0.62968976    -0.00100
C402        C  0.36125116  0.82244214  0.64267092    -0.08600
C403        C  0.38368326  0.85809666  0.62143985    -0.06000
C404        C  0.41592894  0.85061006  0.58709414    -0.00100
C405        C  0.42676799  0.80651466  0.57318051    -0.08600
C406        C  0.46048602  0.79778889  0.53496918     0.61800
H407        H  0.41317037  0.73647797  0.58565444     0.12500
H408        H  0.37559751  0.89230304  0.63083228     0.12500
C409        C  0.32461700  0.83190803  0.67796939     0.62100
F410        F  0.46663146  0.75249840  0.52686820    -0.23100
F411        F  0.50229913  0.81609073  0.54646805    -0.20400
F412        F  0.44471036  0.81730082  0.49499678    -0.20100
F413        F  0.31870612  0.87729927  0.68551024    -0.20200
F414        F  0.33633082  0.81225122  0.71916421    -0.20500
F415        F  0.28345268  0.81477575  0.66286885    -0.23200
C416        C  0.70358739  0.81967499  0.63244003    -0.06000
C417        C  0.67432996  0.78261040  0.63440761    -0.00100
C418        C  0.63097808  0.78445008  0.61255307    -0.08600
C419        C  0.61680671  0.82500575  0.59298165    -0.06000
C420        C  0.64568161  0.86217749  0.59164894    -0.00100
C421        C  0.69035385  0.85936781  0.61023928    -0.08600
C422        C  0.72359414  0.89799530  0.60673140     0.61800
H423        H  0.73732013  0.81685465  0.64778879     0.12500
H424        H  0.58309997  0.82785166  0.57764686     0.12500
C425        C  0.60090630  0.74333208  0.60772480     0.62100
F426        F  0.76460364  0.88886556  0.62882575    -0.23100
F427        F  0.70485912  0.93598995  0.62634216    -0.20400
F428        F  0.73289338  0.90618174  0.56113850    -0.20100
F429        F  0.58454480  0.73079215  0.65002088    -0.20200
F430        F  0.62584396  0.70842139  0.58902112    -0.20500
F431        F  0.56372568  0.75111914  0.57924908    -0.23200
C432        C  0.64009683  0.77719899  0.34677276    -0.06000
C433        C  0.68073538  0.77977140  0.32182388    -0.00100
C434        C  0.70279543  0.82137195  0.31598487    -0.08600
C435        C  0.68380690  0.85939493  0.33690186    -0.06000
C436        C  0.64311816  0.85680750  0.36160114    -0.00100
C437        C  0.62042057  0.81547615  0.36653046    -0.08600
C438        C  0.57573858  0.81205787  0.39245082     0.61800
H439        H  0.62370469  0.74495973  0.35015590     0.12500
H440        H  0.70000203  0.89171026  0.33329474     0.12500
C441        C  0.74522274  0.82572654  0.28666591     0.62100
F442        F  0.56110987  0.76823684  0.39594549    -0.23100
F443        F  0.54211463  0.83614210  0.36984667    -0.20400
F444        F  0.58121394  0.82906904  0.43630431    -0.20100
F445        F  0.73721208  0.80737432  0.24378164    -0.20200
F446        F  0.78150904  0.80366715  0.30718203    -0.20500
F447        F  0.75749152  0.86998649  0.28075603    -0.23200
C448        C  0.36787886  0.80963020  0.30038874    -0.06000
C449        C  0.37710580  0.76969605  0.32384022    -0.00100
C450        C  0.40775623  0.76961388  0.36157861    -0.08600
C451        C  0.42720701  0.81026276  0.37571261    -0.06000
C452        C  0.41690635  0.85025516  0.35314638    -0.00100
C453        C  0.38735380  0.85031519  0.31466984    -0.08600
C454        C  0.37606288  0.89337796  0.28964207     0.61800
H455        H  0.34484005  0.80868884  0.27118884     0.12500
H456        H  0.45010147  0.81133561  0.40501604     0.12500
C457        C  0.41922862  0.72696389  0.38713960     0.62100
F458        F  0.34564418  0.88643035  0.25378571    -0.23100
F459        F  0.41562961  0.91139977  0.27196768    -0.20400
F460        F  0.35662504  0.92375440  0.31970194    -0.20100
F461        F  0.43494879  0.69478537  0.35688095    -0.20200
F462        F  0.38056402  0.71152220  0.40860018    -0.20500
F463        F  0.45261811  0.73368248  0.42028228    -0.23200
C464        C  0.69095585  0.34312270  0.17077346    -0.06000
C465        C  0.67509360  0.35892492  0.21302726    -0.00100
C466        C  0.64196020  0.39343636  0.21486116    -0.08600
C467        C  0.62387042  0.40976853  0.17350480    -0.06000
C468        C  0.63937575  0.39349385  0.13133601    -0.00100
C469        C  0.67382209  0.36038971  0.12948748    -0.08600
C470        C  0.69202177  0.34358667  0.08399162     0.61800
H471        H  0.71670484  0.31697358  0.17049350     0.12500
H472        H  0.59770603  0.43550073  0.17369525     0.12500
C473        C  0.62693415  0.41351194  0.26013995     0.62100
F474        F  0.72677263  0.31252335  0.08978828    -0.23100
F475        F  0.70914117  0.37906227  0.05924636    -0.20400
F476        F  0.65712394  0.32365049  0.05919631    -0.20100
F477        F  0.66401152  0.43335011  0.28144667    -0.20200
F478        F  0.60976290  0.38055969  0.28816885    -0.20500
F479        F  0.59339348  0.44581512  0.25429477    -0.23200
C480        C  0.65635554  0.65402978  0.12216240    -0.06000
C481        C  0.62886345  0.61667788  0.12961357    -0.00100
C482        C  0.62238936  0.60004727  0.17428641    -0.08600
C483        C  0.64369903  0.62232955  0.21100742    -0.06000
C484        C  0.67130857  0.65978439  0.20355573    -0.00100
C485        C  0.67849275  0.67571181  0.15865480    -0.08600
C486        C  0.71047474  0.71439684  0.14933470     0.61800
H487        H  0.66099086  0.66548001  0.08735062     0.12500
H488        H  0.63941864  0.61053453  0.24574403     0.12500
C489        C  0.59324113  0.55908923  0.18273549     0.62100
F490        F  0.71382790  0.72324523  0.10293953    -0.23100
F491        F  0.75373901  0.70425286  0.16575503    -0.20400
F492        F  0.69464021  0.75261828  0.17084325    -0.20100
F493        F  0.61146336  0.52273869  0.15970600    -0.20200
F494        F  0.54921614  0.56677103  0.16699454    -0.20500
F495        F  0.59116487  0.54860832  0.22885264    -0.23200
C496        C  0.34342741  0.65580769  0.16833480    -0.06000
C497        C  0.36712500  0.64659102  0.20918377    -0.00100
C498        C  0.40598973  0.61827799  0.20874125    -0.08600
C499        C  0.42024773  0.60022232  0.16670717    -0.06000
C500        C  0.39693664  0.60995528  0.12589374    -0.00100
C501        C  0.35813253  0.63819390  0.12621540    -0.08600
C502        C  0.33351288  0.65061984  0.08211846     0.61800
H503        H  0.31389157  0.67770357  0.16968161     0.12500
H504        H  0.45009625  0.57874398  0.16519314     0.12500
C505        C  0.43212839  0.60720394  0.25235411     0.62100
F506        F  0.29696843  0.67915212  0.08997390    -0.23100
F507        F  0.31706950  0.61245615  0.06089897    -0.20400
F508        F  0.36351384  0.67185223  0.05303366    -0.20100
F509        F  0.40290940  0.58829320  0.28379808    -0.20200
F510        F  0.45073737  0.64572117  0.27080880    -0.20500
F511        F  0.46747306  0.57727784  0.24437954    -0.23200
C512        C  0.41323528  0.37011156  0.21240010    -0.06000
C513        C  0.36936874  0.35146831  0.20953582    -0.00100
C514        C  0.34557521  0.35063673  0.16715616    -0.08600
C515        C  0.36658426  0.36938271  0.12870843    -0.06000
C516        C  0.41047769  0.38772016  0.13148784    -0.00100
C517        C  0.43437845  0.38855644  0.17379320    -0.08600
C518        C  0.48120066  0.40995927  0.17836430     0.61800
H519        H  0.43072327  0.37002117  0.24522815     0.12500
H520        H  0.34908291  0.36946965  0.09589137     0.12500
C521        C  0.29883003  0.32912936  0.16222786     0.62100
F522        F  0.49700179  0.40958972  0.22321227    -0.23100
F523        F  0.47894461  0.45397509  0.16406192    -0.20400
F524        F  0.51240689  0.38695439  0.15177119    -0.20100
F525        F  0.26672956  0.35389056  0.18594661    -0.20200
F526        F  0.30010939  0.28607909  0.17937239    -0.20500
F527        F  0.28483518  0.32673540  0.11686307    -0.23200
C528        C  0.67227674  0.63577223  0.83071610    -0.06000
C529        C  0.62807280  0.61828023  0.82732410    -0.00100
C530        C  0.60291080  0.62250453  0.78590324    -0.08600
C531        C  0.62376678  0.64342555  0.74840435    -0.06000
C532        C  0.66822270  0.66053897  0.75168592    -0.00100
C533        C  0.69261044  0.65781787  0.79371543    -0.08600
C534        C  0.73941890  0.67887126  0.79986863     0.61800
H535        H  0.69057222  0.63250483  0.86294079     0.12500
H536        H  0.60566226  0.64644373  0.71605508     0.12500
C537        C  0.55481858  0.60408770  0.78102871     0.62100
F538        F  0.75286905  0.67971643  0.84546394    -0.23100
F539        F  0.73859593  0.72250718  0.78430295    -0.20400
F540        F  0.77157178  0.65472565  0.77559143    -0.20100
F541        F  0.52553594  0.62730762  0.80957146    -0.20200
F542        F  0.55457607  0.55931806  0.79263668    -0.20500
F543        F  0.53830466  0.60791655  0.73662830    -0.23200
C544        C  0.65294496  0.34531152  0.82786708    -0.06000
C545        C  0.63905101  0.39020213  0.82727859    -0.00100
C546        C  0.64324862  0.41570888  0.78678945    -0.08600
C547        C  0.66004647  0.39454326  0.74732378    -0.06000
C548        C  0.67410115  0.34966402  0.74792541    -0.00100
C549        C  0.67200623  0.32480372  0.78904045    -0.08600
C550        C  0.69216339  0.27800164  0.79271195     0.61800
H551        H  0.64985935  0.32679632  0.85951297     0.12500
H552        H  0.66303201  0.41303454  0.71565463     0.12500
C553        C  0.62963690  0.46473772  0.78504654     0.62100
F554        F  0.69100739  0.26219942  0.83721924    -0.23100
F555        F  0.73731464  0.27852781  0.77895948    -0.20400
F556        F  0.66796274  0.24849449  0.76539852    -0.20100
F557        F  0.65887478  0.48949082  0.81249503    -0.20200
F558        F  0.58530243  0.46996528  0.80034420    -0.20500
F559        F  0.63183011  0.48168368  0.74102921    -0.23200
C560        C  0.41394954  0.35488098  0.74744298    -0.06000
C561        C  0.37233686  0.33227094  0.75195949    -0.00100
C562        C  0.35123050  0.32940599  0.79544660    -0.08600
C563        C  0.37103999  0.35238864  0.83243123    -0.06000
C564        C  0.41204635  0.37567569  0.82769101    -0.00100
C565        C  0.43469491  0.37631340  0.78507659    -0.08600
C566        C  0.47978733  0.40051017  0.77933841     0.61800
H567        H  0.42952232  0.35637780  0.71389874     0.12500
H568        H  0.35476663  0.35138330  0.86571415     0.12500
C569        C  0.30872828  0.30217535  0.80531023     0.62100
F570        F  0.49431140  0.39985059  0.73428788    -0.23100
F571        F  0.51310294  0.38021728  0.80598303    -0.20400
F572        F  0.47509343  0.44465000  0.79284552    -0.20100
F573        F  0.29323633  0.27779262  0.76804119    -0.20200
F574        F  0.27413783  0.33052524  0.81957968    -0.20500
F575        F  0.31837885  0.27228113  0.84016341    -0.23200
C576        C  0.37979607  0.61607056  0.74763243    -0.06000
C577        C  0.36709928  0.66125655  0.75186787    -0.00100
C578        C  0.36928402  0.68266742  0.79521056    -0.08600
C579        C  0.38585871  0.65819592  0.83277517    -0.06000
C580        C  0.39872433  0.61321398  0.82837800    -0.00100
C581        C  0.39562510  0.59145671  0.78544723    -0.08600
C582        C  0.41036651  0.54306291  0.77945987     0.61800
H583        H  0.37705871  0.60022525  0.71428903     0.12500
H584        H  0.38922614  0.67415407  0.86602283     0.12500
C585        C  0.35432307  0.73090195  0.80216852     0.62100
F586        F  0.40807799  0.52948064  0.73409836    -0.23100
F587        F  0.38222487  0.51557742  0.80462469    -0.20400
F588        F  0.45501575  0.53785872  0.79445035    -0.20100
F589        F  0.31271922  0.73863749  0.78075432    -0.20200
F590        F  0.38684815  0.75916642  0.78431713    -0.20500
F591        F  0.34924997  0.74115872  0.84818360    -0.23200
loop_ 
_geom_bond_atom_site_label_1 
_geom_bond_atom_site_label_2 
_geom_bond_distance 
_geom_bond_site_symmetry_2 
_ccdc_geom_bond_type 
N1            N2   1.321       .  A
N1            N7   1.315       .  A
N1          Mn30   2.203       .  S
N2            C9   1.354       .  A
N3            N5   1.314       .  A
N3            N4   1.318       .  A
N3          Mn19   2.189   1_554  S
N4           C10   1.350       .  A
N5            N6   1.318       .  A
N5          Mn30   2.183   1_554  S
N6           C10   1.349       .  A
N7            N8   1.318       .  A
N7          Mn19   2.190       .  S
N8            C9   1.349       .  A
C9          C529   1.472       .  S
C10         C481   1.457       .  S
N11          N17   1.315       .  A
N11          N12   1.321       .  A
N11         Mn41   2.203   1_554  S
N12          C20   1.352       .  A
N13          N14   1.316       .  A
N13          N15   1.315       .  A
N13         Mn19   2.179       .  S
N14          C21   1.347       .  A
N15          N16   1.320       .  A
N15         Mn41   2.201       .  S
N16          C21   1.353       .  A
N17          N18   1.318       .  A
N17         Mn19   2.186   1_554  S
N18          C20   1.349       .  A
Mn19        Cl43   2.535       .  S
C20         C500   1.464       .  S
C21         C580   1.465       .  S
N22          N23   1.319       .  A
N22          N28   1.314       .  A
N22         Mn30   2.194   1_554  S
N23          C31   1.350       .  A
N24          N26   1.315       .  A
N24          N25   1.319       .  A
N24         Mn42   2.196       .  S
N25          C32   1.351       .  A
N26          N27   1.318       .  A
N26         Mn30   2.191       .  S
N27          C32   1.350       .  A
N28          N29   1.318       .  A
N28         Mn42   2.182   1_554  S
N29          C31   1.349       .  A
Mn30        Cl43   2.545       .  S
C31         C468   1.459       .  S
C32         C545   1.468       .  S
N33          N34   1.320       .  A
N33          N39   1.315       .  A
N33         Mn41   2.202       .  S
N34          C44   1.353       .  A
N35          N36   1.320       .  A
N35          N37   1.316       .  A
N35         Mn42   2.196   1_554  S
N36          C45   1.351       .  A
N37          N38   1.319       .  A
N37         Mn41   2.194   1_554  S
N38          C45   1.350       .  A
N39          N40   1.317       .  A
N39         Mn42   2.183       .  S
N40          C44   1.348       .  A
Mn41        Cl43   2.548       .  S
Mn42        Cl43   2.538       .  S
C44         C564   1.464       .  S
C45         C516   1.467       .  S
N46          N47   1.321       .  A
N46          N52   1.314       .  A
N46         Mn75   2.196   1_565  S
N47          C54   1.351       .  A
N48          N50   1.315       .  A
N48          N49   1.319       .  A
N48         Mn64   2.198   1_545  S
N49          C55   1.351       .  A
N50          N51   1.319       .  A
N50         Mn75   2.188       .  S
N51          C55   1.350       .  A
N52          N53   1.318       .  A
N52         Mn64   2.190       .  S
N53          C54   1.350       .  A
C54         C452   1.465       .  S
C55         C369   1.467       .  S
N56          N62   1.315       .  A
N56          N57   1.320       .  A
N56         Mn86   2.198       .  S
N57          C65   1.351       .  A
N58          N59   1.319       .  A
N58          N60   1.316       .  A
N58         Mn64   2.198       .  S
N59          C66   1.350       .  A
N60          N61   1.321       .  A
N60         Mn86   2.205   1_565  S
N61          C66   1.352       .  A
N62          N63   1.320       .  A
N62         Mn64   2.194   1_545  S
N63          C65   1.350       .  A
Mn64        Cl88   2.542   1_565  S
C65         C353   1.467       .  S
C66         C404   1.468       .  S
N67          N68   1.319       .  A
N67          N73   1.314       .  A
N67         Mn75   2.190       .  S
N68          C76   1.350       .  A
N69          N71   1.316       .  A
N69          N70   1.320       .  A
N69         Mn87   2.201   1_565  S
N70          C77   1.352       .  A
N71          N72   1.316       .  A
N71         Mn75   2.184   1_565  S
N72          C77   1.347       .  A
N73          N74   1.319       .  A
N73         Mn87   2.190       .  S
N74          C76   1.349       .  A
Mn75        Cl88   2.542       .  S
C76         C388   1.463       .  S
C77         C436   1.461       .  S
N78          N79   1.318       .  A
N78          N84   1.315       .  A
N78         Mn86   2.192   1_565  S
N79          C89   1.350       .  A
N80          N81   1.319       .  A
N80          N82   1.316       .  A
N80         Mn87   2.195       .  S
N81          C90   1.350       .  A
N82          N83   1.321       .  A
N82         Mn86   2.207       .  S
N83          C90   1.353       .  A
N84          N85   1.321       .  A
N84         Mn87   2.199   1_565  S
N85          C89   1.353       .  A
Mn86        Cl88   2.543       .  S
Mn87        Cl88   2.546       .  S
C89         C420   1.470       .  S
C90         C340   1.470       .  S
N91          N92   1.318       .  A
N91          N97   1.315       .  A
N91        Mn120   2.189   1_655  S
N92          C99   1.349       .  A
N93          N95   1.317       .  A
N93          N94   1.320       .  A
N93        Mn109   2.199       .  S
N94         C100   1.351       .  A
N95          N96   1.318       .  A
N95        Mn120   2.194       .  S
N96         C100   1.349       .  A
N97          N98   1.318       .  A
N97        Mn109   2.188   1_655  S
N98          C99   1.349       .  A
C99         C321   1.457       .  S
C100        C244   1.463       .  S
N101        N107   1.315       .  A
N101        N102   1.318       .  A
N101       Mn131   2.186       .  S
N102        C110   1.350       .  A
N103        N104   1.320       .  A
N103        N105   1.316       .  A
N103       Mn109   2.198   1_655  S
N104        C111   1.352       .  A
N105        N106   1.319       .  A
N105       Mn131   2.197   1_655  S
N106        C111   1.351       .  A
N107        N108   1.318       .  A
N107       Mn109   2.191       .  S
N108        C110   1.350       .  A
Mn109      Cl133   2.539       .  S
C110        C225   1.464       .  S
C111        C276   1.472       .  S
N112        N113   1.320       .  A
N112        N118   1.314       .  A
N112       Mn120   2.198       .  S
N113        C121   1.352       .  A
N114        N116   1.315       .  A
N114        N115   1.317       .  A
N114       Mn132   2.180   1_655  S
N115        C122   1.348       .  A
N116        N117   1.320       .  A
N116       Mn120   2.204   1_655  S
N117        C122   1.353       .  A
N118        N119   1.317       .  A
N118       Mn132   2.177       .  S
N119        C121   1.348       .  A
Mn120      Cl133   2.544       .  S
C121        C257   1.466       .  S
C122        C305   1.462       .  S
N123        N124   1.319       .  A
N123        N129   1.314       .  A
N123       Mn131   2.191   1_655  S
N124        C134   1.352       .  A
N125        N126   1.317       .  A
N125        N127   1.315       .  A
N125       Mn132   2.181       .  S
N126        C135   1.347       .  A
N127        N128   1.321       .  A
N127       Mn131   2.204       .  S
N128        C135   1.353       .  A
N129        N130   1.316       .  A
N129       Mn132   2.180   1_655  S
N130        C134   1.348       .  A
Mn131      Cl133   2.547       .  S
Mn132      Cl133   2.539       .  S
C134        C292   1.464       .  S
C135        C209   1.465       .  S
C136        C308   1.470       .  S
C136        C137   1.399       .  A
C136        C141   1.402       .  A
C137        C138   1.396       .  A
C137        H142   1.084       .  S
C138        C465   1.467       .  S
C138        C139   1.399       .  A
C139        C140   1.399       .  A
C139        H143   1.084       .  S
C140        C385   1.472       .  S
C140        C141   1.403       .  A
C141        H144   1.084       .  S
C145        C324   1.463       .  S
C145        C146   1.397       .  A
C145        C150   1.396       .  A
C146        C147   1.398       .  A
C146        H151   1.084       .  S
C147        C433   1.469       .  S
C147        C148   1.400       .  A
C148        C149   1.400       .  A
C148        H152   1.084       .  S
C149        C484   1.466       .  S
C149        C150   1.397       .  A
C150        H153   1.084       .  S
C154        C548   1.472       .  S
C154        C155   1.398       .  A
C154        C159   1.400       .  A
C155        C156   1.398       .  A
C155        H160   1.084       .  S
C156        C289   1.472       .  S
C156        C157   1.402       .  A
C157        C158   1.401       .  A
C157        H161   1.084       .  S
C158        C337   1.475       .  S
C158        C159   1.401       .  A
C159        H162   1.083       .  S
C163        C449   1.475       .  S
C163        C164   1.404       .  A
C163        C168   1.400       .  A
C164        C165   1.402       .  A
C164        H169   1.083       .  S
C165        C241   1.474       .  S
C165        C166   1.401       .  A
C166        C167   1.401       .  A
C166        H170   1.082       .  S
C167        C497   1.472       .  S
C167        C168   1.400       .  A
C168        H171   1.087       .  S
C172        C401   1.474       .  S
C172        C173   1.401       .  A
C172        C177   1.403       .  A
C173        C174   1.400       .  A
C173        H178   1.083       .  S
C174        C228   1.474       .  S
C174        C175   1.398       .  A
C175        C176   1.399       .  A
C175        H179   1.085       .  S
C176        C577   1.476       .  S
C176        C177   1.403       .  A
C177        H180   1.083       .  S
C181        C561   1.469       .  S
C181        C182   1.400       .  A
C181        C186   1.398       .  A
C182        C183   1.402       .  A
C182        H187   1.084       .  S
C183        C356   1.475       .  S
C183        C184   1.402       .  A
C184        C185   1.403       .  A
C184        H188   1.084       .  S
C185        C212   1.473       .  S
C185        C186   1.397       .  A
C186        H189   1.084       .  S
C190        C532   1.478       .  S
C190        C191   1.403       .  A
C190        C195   1.400       .  A
C191        C192   1.404       .  A
C191        H196   1.083       .  S
C192        C417   1.477       .  S
C192        C193   1.399       .  A
C193        C194   1.398       .  A
C193        H197   1.081       .  S
C194        C273   1.477       .  S
C194        C195   1.402       .  A
C195        H198   1.084       .  S
C199        C372   1.475       .  S
C199        C200   1.403       .  A
C199        C204   1.399       .  A
C200        C201   1.402       .  A
C200        H205   1.082       .  S
C201        C260   1.478       .  S
C201        C202   1.401       .  A
C202        C203   1.399       .  A
C202        H206   1.084       .  S
C203        C513   1.473       .  S
C203        C204   1.398       .  A
C204        H207   1.083       .  S
C208        C209   1.398       .  A
C208        C213   1.403       .  A
C208        H215   1.083       .  S
C209        C210   1.414       .  A
C210        C211   1.403       .  A
C210        C217   1.516       .  S
C211        C212   1.401       .  A
C211        H216   1.084       .  S
C212        C213   1.417       .  A
C213        C214   1.518       .  S
C214        F218   1.385       .  S
C214        F219   1.379       .  S
C214        F220   1.383       .  S
C217        F221   1.385       .  S
C217        F222   1.380       .  S
C217        F223   1.382       .  S
C224        C225   1.398       .  A
C224        C229   1.403       .  A
C224        H231   1.084       .  S
C225        C226   1.413       .  A
C226        C227   1.402       .  A
C226        C233   1.516       .  S
C227        C228   1.402       .  A
C227        H232   1.084       .  S
C228        C229   1.417       .  A
C229        C230   1.516       .  S
C230        F234   1.384       .  S
C230        F235   1.384       .  S
C230        F236   1.380       .  S
C233        F237   1.384       .  S
C233        F238   1.382       .  S
C233        F239   1.384       .  S
C240        C241   1.403       .  A
C240        C245   1.405       .  A
C240        H247   1.083       .  S
C241        C242   1.415       .  A
C242        C243   1.404       .  A
C242        C249   1.515       .  S
C243        C244   1.398       .  A
C243        H248   1.084       .  S
C244        C245   1.412       .  A
C245        C246   1.518       .  S
C246        F250   1.384       .  S
C246        F251   1.383       .  S
C246        F252   1.383       .  S
C249        F253   1.379       .  S
C249        F254   1.383       .  S
C249        F255   1.385       .  S
C256        C257   1.400       .  A
C256        C261   1.404       .  A
C256        H263   1.083       .  S
C257        C258   1.412       .  A
C258        C259   1.404       .  A
C258        C265   1.519       .  S
C259        C260   1.405       .  A
C259        H264   1.083       .  S
C260        C261   1.420       .  A
C261        C262   1.522       .  S
C262        F266   1.385       .  S
C262        F267   1.381       .  S
C262        F268   1.383       .  S
C265        F269   1.383       .  S
C265        F270   1.382       .  S
C265        F271   1.384       .  S
C272        C273   1.402       .  A
C272        C277   1.401       .  A
C272        H279   1.083       .  S
C273        C274   1.419       .  A
C274        C275   1.406       .  A
C274        C281   1.522       .  S
C275        C276   1.402       .  A
C275        H280   1.084       .  S
C276        C277   1.415       .  A
C277        C278   1.519       .  S
C278        F282   1.385       .  S
C278        F283   1.383       .  S
C278        F284   1.382       .  S
C281        F285   1.381       .  S
C281        F286   1.383       .  S
C281        F287   1.385       .  S
C288        C289   1.402       .  A
C288        C293   1.402       .  A
C288        H295   1.084       .  S
C289        C290   1.418       .  A
C290        C291   1.403       .  A
C290        C297   1.521       .  S
C291        C292   1.399       .  A
C291        H296   1.084       .  S
C292        C293   1.414       .  A
C293        C294   1.519       .  S
C294        F298   1.384       .  S
C294        F299   1.384       .  S
C294        F300   1.383       .  S
C297        F301   1.381       .  S
C297        F302   1.384       .  S
C297        F303   1.385       .  S
C304        C305   1.399       .  A
C304        C309   1.403       .  A
C304        H311   1.083       .  S
C305        C306   1.411       .  A
C306        C307   1.405       .  A
C306        C313   1.517       .  S
C307        C308   1.402       .  A
C307        H312   1.083       .  S
C308        C309   1.414       .  A
C309        C310   1.516       .  S
C310        F314   1.384       .  S
C310        F315   1.382       .  S
C310        F316   1.380       .  S
C313        F317   1.383       .  S
C313        F318   1.383       .  S
C313        F319   1.384       .  S
C320        C321   1.398       .  A
C320        C325   1.401       .  A
C320        H327   1.084       .  S
C321        C322   1.412       .  A
C322        C323   1.402       .  A
C322        C329   1.518       .  S
C323        C324   1.400       .  A
C323        H328   1.084       .  S
C324        C325   1.413       .  A
C325        C326   1.517       .  S
C326        F330   1.384       .  S
C326        F331   1.383       .  S
C326        F332   1.383       .  S
C329        F333   1.383       .  S
C329        F334   1.383       .  S
C329        F335   1.385       .  S
C336        C337   1.402       .  A
C336        C341   1.402       .  A
C336        H343   1.084       .  S
C337        C338   1.416       .  A
C338        C339   1.408       .  A
C338        C345   1.519       .  S
C339        C340   1.403       .  A
C339        H344   1.084       .  S
C340        C341   1.413       .  A
C341        C342   1.518       .  S
C342        F346   1.384       .  S
C342        F347   1.384       .  S
C342        F348   1.382       .  S
C345        F349   1.382       .  S
C345        F350   1.383       .  S
C345        F351   1.384       .  S
C352        C353   1.401       .  A
C352        C357   1.406       .  A
C352        H359   1.083       .  S
C353        C354   1.412       .  A
C354        C355   1.405       .  A
C354        C361   1.517       .  S
C355        C356   1.402       .  A
C355        H360   1.083       .  S
C356        C357   1.416       .  A
C357        C358   1.518       .  S
C358        F362   1.385       .  S
C358        F363   1.383       .  S
C358        F364   1.382       .  S
C361        F365   1.383       .  S
C361        F366   1.383       .  S
C361        F367   1.384       .  S
C368        C369   1.401       .  A
C368        C373   1.405       .  A
C368        H375   1.084       .  S
C369        C370   1.412       .  A
C370        C371   1.403       .  A
C370        C377   1.518       .  S
C371        C372   1.403       .  A
C371        H376   1.083       .  S
C372        C373   1.417       .  A
C373        C374   1.520       .  S
C374        F378   1.384       .  S
C374        F379   1.383       .  S
C374        F380   1.381       .  S
C377        F381   1.382       .  S
C377        F382   1.384       .  S
C377        F383   1.384       .  S
C384        C385   1.402       .  A
C384        C389   1.404       .  A
C384        H391   1.083       .  S
C385        C386   1.414       .  A
C386        C387   1.404       .  A
C386        C393   1.516       .  S
C387        C388   1.399       .  A
C387        H392   1.083       .  S
C388        C389   1.411       .  A
C389        C390   1.517       .  S
C390        F394   1.384       .  S
C390        F395   1.383       .  S
C390        F396   1.383       .  S
C393        F397   1.382       .  S
C393        F398   1.381       .  S
C393        F399   1.384       .  S
C400        C401   1.402       .  A
C400        C405   1.407       .  A
C400        H407   1.083       .  S
C401        C402   1.415       .  A
C402        C403   1.403       .  A
C402        C409   1.517       .  S
C403        C404   1.398       .  A
C403        H408   1.083       .  S
C404        C405   1.413       .  A
C405        C406   1.515       .  S
C406        F410   1.385       .  S
C406        F411   1.381       .  S
C406        F412   1.382       .  S
C409        F413   1.384       .  S
C409        F414   1.381       .  S
C409        F415   1.379       .  S
C416        C417   1.405       .  A
C416        C421   1.406       .  A
C416        H423   1.084       .  S
C417        C418   1.417       .  A
C418        C419   1.402       .  A
C418        C425   1.520       .  S
C419        C420   1.400       .  A
C419        H424   1.083       .  S
C420        C421   1.414       .  A
C421        C422   1.517       .  S
C422        F426   1.385       .  S
C422        F427   1.383       .  S
C422        F428   1.383       .  S
C425        F429   1.381       .  S
C425        F430   1.384       .  S
C425        F431   1.384       .  S
C432        C433   1.401       .  A
C432        C437   1.403       .  A
C432        H439   1.084       .  S
C433        C434   1.415       .  A
C434        C435   1.403       .  A
C434        C441   1.519       .  S
C435        C436   1.399       .  A
C435        H440   1.084       .  S
C436        C437   1.414       .  A
C437        C438   1.519       .  S
C438        F442   1.385       .  S
C438        F443   1.382       .  S
C438        F444   1.383       .  S
C441        F445   1.383       .  S
C441        F446   1.382       .  S
C441        F447   1.385       .  S
C448        C449   1.403       .  A
C448        C453   1.406       .  A
C448        H455   1.083       .  S
C449        C450   1.415       .  A
C450        C451   1.403       .  A
C450        C457   1.515       .  S
C451        C452   1.398       .  A
C451        H456   1.083       .  S
C452        C453   1.412       .  A
C453        C454   1.517       .  S
C454        F458   1.384       .  S
C454        F459   1.383       .  S
C454        F460   1.383       .  S
C457        F461   1.383       .  S
C457        F462   1.379       .  S
C457        F463   1.384       .  S
C464        C465   1.400       .  A
C464        C469   1.401       .  A
C464        H471   1.084       .  S
C465        C466   1.414       .  A
C466        C467   1.403       .  A
C466        C473   1.516       .  S
C467        C468   1.399       .  A
C467        H472   1.083       .  S
C468        C469   1.411       .  A
C469        C470   1.517       .  S
C470        F474   1.384       .  S
C470        F475   1.383       .  S
C470        F476   1.383       .  S
C473        F477   1.381       .  S
C473        F478   1.382       .  S
C473        F479   1.384       .  S
C480        C481   1.398       .  A
C480        C485   1.401       .  A
C480        H487   1.083       .  S
C481        C482   1.411       .  A
C482        C483   1.403       .  A
C482        C489   1.517       .  S
C483        C484   1.402       .  A
C483        H488   1.083       .  S
C484        C485   1.413       .  A
C485        C486   1.518       .  S
C486        F490   1.385       .  S
C486        F491   1.383       .  S
C486        F492   1.381       .  S
C489        F493   1.383       .  S
C489        F494   1.383       .  S
C489        F495   1.385       .  S
C496        C497   1.402       .  A
C496        C501   1.405       .  A
C496        H503   1.083       .  S
C497        C498   1.415       .  A
C498        C499   1.403       .  A
C498        C505   1.517       .  S
C499        C500   1.399       .  A
C499        H504   1.083       .  S
C500        C501   1.412       .  A
C501        C502   1.517       .  S
C502        F506   1.385       .  S
C502        F507   1.383       .  S
C502        F508   1.383       .  S
C505        F509   1.383       .  S
C505        F510   1.382       .  S
C505        F511   1.385       .  S
C512        C513   1.403       .  A
C512        C517   1.405       .  A
C512        H519   1.083       .  S
C513        C514   1.415       .  A
C514        C515   1.403       .  A
C514        C521   1.519       .  S
C515        C516   1.400       .  A
C515        H520   1.083       .  S
C516        C517   1.415       .  A
C517        C518   1.519       .  S
C518        F522   1.385       .  S
C518        F523   1.384       .  S
C518        F524   1.382       .  S
C521        F525   1.381       .  S
C521        F526   1.383       .  S
C521        F527   1.384       .  S
C528        C529   1.400       .  A
C528        C533   1.404       .  A
C528        H535   1.083       .  S
C529        C530   1.416       .  A
C530        C531   1.407       .  A
C530        C537   1.519       .  S
C531        C532   1.402       .  A
C531        H536   1.083       .  S
C532        C533   1.417       .  A
C533        C534   1.519       .  S
C534        F538   1.385       .  S
C534        F539   1.383       .  S
C534        F540   1.381       .  S
C537        F541   1.382       .  S
C537        F542   1.382       .  S
C537        F543   1.384       .  S
C544        C545   1.401       .  A
C544        C549   1.404       .  A
C544        H551   1.083       .  S
C545        C546   1.415       .  A
C546        C547   1.403       .  A
C546        C553   1.519       .  S
C547        C548   1.402       .  A
C547        H552   1.083       .  S
C548        C549   1.416       .  A
C549        C550   1.520       .  S
C550        F554   1.385       .  S
C550        F555   1.384       .  S
C550        F556   1.381       .  S
C553        F557   1.383       .  S
C553        F558   1.383       .  S
C553        F559   1.385       .  S
C560        C561   1.402       .  A
C560        C565   1.405       .  A
C560        H567   1.084       .  S
C561        C562   1.418       .  A
C562        C563   1.400       .  A
C562        C569   1.519       .  S
C563        C564   1.398       .  A
C563        H568   1.085       .  S
C564        C565   1.413       .  A
C565        C566   1.518       .  S
C566        F570   1.384       .  S
C566        F571   1.382       .  S
C566        F572   1.382       .  S
C569        F573   1.382       .  S
C569        F574   1.383       .  S
C569        F575   1.384       .  S
C576        C577   1.405       .  A
C576        C581   1.404       .  A
C576        H583   1.083       .  S
C577        C578   1.416       .  A
C578        C579   1.403       .  A
C578        C585   1.519       .  S
C579        C580   1.401       .  A
C579        H584   1.083       .  S
C580        C581   1.412       .  A
C581        C582   1.518       .  S
C582        F586   1.384       .  S
C582        F587   1.383       .  S
C582        F588   1.383       .  S
C585        F589   1.383       .  S
C585        F590   1.382       .  S
C585        F591   1.385       .  S
