geometry optimzed in LAMMPS
_audit_creation_date              2020-12-01 
_audit_creation_method            'lammps2cif' 
_symmetry_space_group_name_H-M    'P1' 
_symmetry_Int_Tables_number       1 
_symmetry_cell_setting            triclinic 
loop_ 
_symmetry_equiv_pos_as_xyz 
  x,y,z 
_cell_length_a                    47.17067662 
_cell_length_b                    47.083906690786534 
_cell_length_c                    34.95216388164252 
_cell_angle_alpha                 90.23737702012664 
_cell_angle_beta                  89.76362146356493 
_cell_angle_gamma                 120.29322048500565 
loop_ 
_atom_site_label 
_atom_site_type_symbol 
_atom_site_fract_x 
_atom_site_fract_y 
_atom_site_fract_z 
_atom_site_charge 
Zn1        Zn  0.46556605  0.23325035  0.96671403     1.49700
Zn2        Zn  0.38677213  0.19303878  0.97112622     1.49400
Zn3        Zn  0.43038442  0.18031368  0.03216147     1.49100
Zn4        Zn  0.42911049  0.24760236  0.03370142     1.49500
O5          O  0.42778237  0.21332450  0.00087509    -1.82900
O6          O  0.45143561  0.22846380  0.91199469    -0.73500
O7          O  0.35994746  0.14410842  0.98158440    -0.73300
O8          O  0.47115811  0.17739890  0.02019645    -0.72800
O9          O  0.39699145  0.19925061  0.91446302    -0.73500
O10         O  0.49448210  0.21358501  0.97321875    -0.73100
O11         O  0.39110428  0.13584515  0.02225958    -0.73700
O12         O  0.42634187  0.23534032  0.08894898    -0.73100
O13         O  0.35916407  0.21418442  0.98266455    -0.73800
O14         O  0.42971078  0.19001504  0.08853511    -0.73200
O15         O  0.39127004  0.25422198  0.02267993    -0.73700
O16         O  0.47058813  0.29131964  0.02657370    -0.73600
O17         O  0.49430892  0.28112380  0.97784708    -0.73400
C18         C  0.42364524  0.21422710  0.89540120     0.78400
C19         C  0.36517357  0.12492227  0.00217319     0.78900
C20         C  0.49413308  0.19224741  0.99576296     0.77900
C21         C  0.42732122  0.21227850  0.10664246     0.78200
C22         C  0.36522798  0.23927603  0.00278695     0.79400
C23         C  0.49404482  0.30079246  0.00266873     0.78400
Zn24       Zn  0.38745173  0.19471614  0.46995148     1.49700
Zn25       Zn  0.46574600  0.23784223  0.46745758     1.49400
Zn26       Zn  0.42725233  0.25099282  0.53343007     1.49100
Zn27       Zn  0.43039455  0.18513945  0.53361889     1.49500
O28         O  0.42749827  0.21714230  0.50103985    -1.82900
O29         O  0.39865500  0.20128815  0.41349159    -0.73500
O30         O  0.49119313  0.28674173  0.47495296    -0.73300
O31         O  0.38634811  0.25313822  0.52365330    -0.72800
O32         O  0.45313742  0.22903247  0.41220416    -0.73500
O33         O  0.35830566  0.21391824  0.48051563    -0.73100
O34         O  0.46718376  0.29609345  0.52426268    -0.73700
O35         O  0.42616227  0.19307091  0.58948790    -0.73100
O36         O  0.49713894  0.22207363  0.47900665    -0.73800
O37         O  0.42716960  0.24066046  0.58897751    -0.73200
O38         O  0.47373794  0.18738700  0.52720219    -0.73700
O39         O  0.39518737  0.13932919  0.52037993    -0.73600
O40         O  0.36257630  0.14524335  0.47954926    -0.73400
C41         C  0.42565894  0.21481341  0.39499483     0.78400
C42         C  0.48993086  0.30627558  0.49923427     0.78900
C43         C  0.36145901  0.23725825  0.50206177     0.77900
C44         C  0.42621814  0.21682522  0.60709460     0.78200
C45         C  0.49758367  0.20280492  0.50411757     0.79400
C46         C  0.36968572  0.12700837  0.49940068     0.78400
Zn47       Zn  0.19336523  0.81060088  0.01794749     1.49700
Zn48       Zn  0.23567726  0.77506334  0.02391599     1.49400
Zn49       Zn  0.18435779  0.75608171  0.95572559     1.49100
Zn50       Zn  0.25047962  0.82612407  0.95706775     1.49500
O51         O  0.21580903  0.79195783  0.98864709    -1.82900
O52         O  0.19748222  0.80612861  0.07467987    -0.73500
O53         O  0.22020919  0.72733705  0.01306320    -0.73300
O54         O  0.13794885  0.74561735  0.96759098    -0.72800
O55         O  0.22583504  0.78038389  0.07869685    -0.73500
O56         O  0.14457442  0.78573667  0.00703801    -0.73100
O57         O  0.18769608  0.71479747  0.96249052    -0.73700
O58         O  0.23969328  0.81725092  0.90131860    -0.73100
O59         O  0.28476757  0.79839280  0.01737901    -0.73800
O60         O  0.19314920  0.76931742  0.90011462    -0.73200
O61         O  0.29463912  0.82967865  0.96609185    -0.73700
O62         O  0.25487663  0.87004298  0.96822956    -0.73600
O63         O  0.21366978  0.85950900  0.00780329    -0.73400
C64         C  0.21082028  0.79347862  0.09456537     0.78400
C65         C  0.20259650  0.70708950  0.98707796     0.78900
C66         C  0.12609327  0.75986261  0.98770608     0.77900
C67         C  0.21615100  0.79408007  0.88285090     0.78200
C68         C  0.30449072  0.81792660  0.99223859     0.79400
C69         C  0.23861039  0.87963824  0.98817055     0.78400
Zn70       Zn  0.23187191  0.77038282  0.45213119     1.49700
Zn71       Zn  0.19656741  0.81295066  0.46054439     1.49400
Zn72       Zn  0.18390372  0.75664404  0.52215096     1.49100
Zn73       Zn  0.25288687  0.82296494  0.51974400     1.49500
O74         O  0.21625183  0.79088383  0.48861416    -1.82900
O75         O  0.22185127  0.77672873  0.39818003    -0.73500
O76         O  0.14793312  0.79162558  0.47260688    -0.73300
O77         O  0.17960611  0.71233240  0.51229074    -0.72800
O78         O  0.20028774  0.80902723  0.40327099    -0.73500
O79         O  0.21147010  0.72183480  0.46157310    -0.73100
O80         O  0.14005893  0.75270484  0.51429659    -0.73700
O81         O  0.24358398  0.81388536  0.57601751    -0.73100
O82         O  0.21945513  0.86160890  0.47339591    -0.73800
O83         O  0.19562038  0.76722038  0.57761882    -0.73200
O84         O  0.25964597  0.86813765  0.51204536    -0.73700
O85         O  0.29499934  0.82331408  0.50656303    -0.73600
O86         O  0.28060586  0.78912506  0.45711603    -0.73400
C87         C  0.20993104  0.79295007  0.38299305     0.78400
C88         C  0.12914424  0.76767353  0.49430456     0.78900
C89         C  0.19203923  0.70235227  0.48692863     0.77900
C90         C  0.21988867  0.79091886  0.59454452     0.78200
C91         C  0.24452703  0.87986208  0.49385819     0.79400
C92         C  0.30222491  0.80891454  0.48054625     0.78400
Zn93       Zn  0.82195956  0.57298879  0.03810221     1.49700
Zn94       Zn  0.76736547  0.54076851  0.97405833     1.49400
Zn95       Zn  0.75760258  0.57851102  0.04347162     1.49100
Zn96       Zn  0.81183917  0.61882918  0.97831555     1.49500
O97         O  0.78984231  0.57810907  0.00847605    -1.82900
O98         O  0.81894467  0.52937540  0.02834517    -0.73500
O99         O  0.71895925  0.51744896  0.98223270    -0.73300
O100        O  0.77047921  0.57914890  0.09836916    -0.72800
O101        O  0.78039369  0.50699252  0.98390241    -0.73500
O102        O  0.81513841  0.57495967  0.09452729    -0.73100
O103        O  0.71244064  0.53848150  0.03626788    -0.73700
O104        O  0.79095804  0.64691304  0.98889079    -0.73100
O105        O  0.77626659  0.55414691  0.91908134    -0.73800
O106        O  0.75374540  0.61851384  0.03374480    -0.73200
O107        O  0.80665790  0.60850751  0.92145778    -0.73700
O108        O  0.86113590  0.64393244  0.98902276    -0.73600
O109        O  0.86744995  0.60918057  0.02586459    -0.73400
C110        C  0.80073347  0.50546732  0.00634326     0.78400
C111        C  0.70082152  0.51754876  0.00915995     0.78900
C112        C  0.79369801  0.57725903  0.11431242     0.77900
C113        C  0.76785126  0.64310997  0.01129740     0.78200
C114        C  0.79197615  0.58180278  0.90232936     0.79400
C115        C  0.87954968  0.63599945  0.00724412     0.78400
Zn116      Zn  0.77559723  0.54290814  0.47475114     1.49700
Zn117      Zn  0.81495539  0.62126851  0.47634180     1.49400
Zn118      Zn  0.75958416  0.58047975  0.53996201     1.49100
Zn119      Zn  0.82672683  0.57920149  0.54044260     1.49500
O120        O  0.79421141  0.58125275  0.50799893    -1.82900
O121        O  0.78392838  0.55519706  0.41967896    -0.73500
O122        O  0.79524913  0.65024714  0.48738892    -0.73300
O123        O  0.71498865  0.53963193  0.52937466    -0.72800
O124        O  0.80916832  0.60963392  0.42002006    -0.73500
O125        O  0.72737456  0.51556284  0.48280191    -0.73100
O126        O  0.75649843  0.62107293  0.53039760    -0.73700
O127        O  0.81840329  0.58342025  0.59622014    -0.73100
O128        O  0.86419342  0.64672745  0.48443161    -0.73800
O129        O  0.77040200  0.58151969  0.59602266    -0.73200
O130        O  0.87158531  0.61541312  0.52589939    -0.73700
O131        O  0.82720685  0.53673013  0.53399563    -0.73600
O132        O  0.79369554  0.51340108  0.48502082    -0.73400
C133        C  0.79725153  0.58245170  0.40196343     0.78400
C134        C  0.77199662  0.64652922  0.50946697     0.78900
C135        C  0.70649794  0.51621619  0.50537857     0.77900
C136        C  0.79471867  0.58333565  0.61399528     0.78200
C137        C  0.88306201  0.64022611  0.50378766     0.79400
C138        C  0.81329450  0.51340521  0.50984697     0.78400
Zn139      Zn  0.62188771  0.81072828  0.97222228     1.49700
Zn140      Zn  0.54321467  0.77293924  0.96409126     1.49400
Zn141      Zn  0.57556896  0.75408850  0.03089435     1.49100
Zn142      Zn  0.57597283  0.82189423  0.03328674     1.49500
O143        O  0.57953172  0.79024833  0.00002369    -1.82900
O144        O  0.61382722  0.80939059  0.91484642    -0.73500
O145        O  0.51293211  0.72432664  0.97072860    -0.73300
O146        O  0.61175141  0.74510918  0.01855233    -0.72800
O147        O  0.55934702  0.78329691  0.91025212    -0.73500
O148        O  0.64686366  0.78621981  0.98170186    -0.73100
O149        O  0.53233500  0.71222880  0.02192955    -0.73700
O150        O  0.57456033  0.80969059  0.08898798    -0.73100
O151        O  0.51504882  0.79284853  0.97188577    -0.73800
O152        O  0.57926790  0.76504587  0.08690410    -0.73200
O153        O  0.53594844  0.82634645  0.02147855    -0.73700
O154        O  0.61638846  0.86607309  0.02632617    -0.73600
O155        O  0.64994855  0.85897143  0.98777540    -0.73400
C156        C  0.58769362  0.79800353  0.89495343     0.78400
C157        C  0.51057267  0.70388961  0.99607866     0.78900
C158        C  0.63862137  0.75971429  0.99996946     0.77900
C159        C  0.57745294  0.78727704  0.10569329     0.78200
C160        C  0.51423799  0.81303882  0.99541159     0.79400
C161        C  0.64367861  0.87747135  0.00864768     0.78400
Zn162      Zn  0.54397045  0.77066538  0.53414783     1.49700
Zn163      Zn  0.62255614  0.81077843  0.53126209     1.49400
Zn164      Zn  0.58180270  0.75437929  0.46918895     1.49100
Zn165      Zn  0.58043358  0.82092436  0.46637616     1.49500
O166        O  0.58231697  0.78916495  0.50039297    -1.82900
O167        O  0.55683602  0.78127428  0.58974806    -0.73500
O168        O  0.65118885  0.79025572  0.52206717    -0.73300
O169        O  0.54028432  0.71103011  0.47825766    -0.72800
O170        O  0.61118199  0.80640610  0.58738507    -0.73500
O171        O  0.51728251  0.72148442  0.52794563    -0.73100
O172        O  0.62088940  0.74966325  0.48159265    -0.73700
O173        O  0.58479583  0.81153802  0.41140135    -0.73100
O174        O  0.64792318  0.85994762  0.52125462    -0.73800
O175        O  0.58388365  0.76406549  0.41273206    -0.73200
O176        O  0.61671161  0.86625650  0.47861684    -0.73700
O177        O  0.53763036  0.82064397  0.47088258    -0.73600
O178        O  0.51345229  0.78732231  0.51995406    -0.73400
C179        C  0.58461629  0.79513089  0.60646546     0.78400
C180        C  0.64654548  0.76551041  0.50208493     0.78900
C181        C  0.51764800  0.70167353  0.50330408     0.77900
C182        C  0.58512276  0.78785629  0.39415192     0.78200
C183        C  0.64166364  0.87829883  0.50045804     0.79400
C184        C  0.51350047  0.80616189  0.49384064     0.78400
Zn185      Zn  0.77094884  0.22578107  0.97240653     1.49700
Zn186      Zn  0.75307218  0.17411053  0.04053512     1.49400
Zn187      Zn  0.81264137  0.19064514  0.98195783     1.49100
Zn188      Zn  0.81871786  0.24434723  0.04401124     1.49500
O189        O  0.78881859  0.20853138  0.00991619    -1.82900
O190        O  0.72179948  0.20212618  0.97577183    -0.73500
O191        O  0.75250235  0.13128527  0.03315697    -0.73300
O192        O  0.80992561  0.19425571  0.92465702    -0.72800
O193        O  0.70857975  0.16821750  0.02519474    -0.73500
O194        O  0.78408635  0.22239139  0.91858959    -0.73100
O195        O  0.79409062  0.14239816  0.99376660    -0.73700
O196        O  0.86542109  0.25441108  0.03679693    -0.73100
O197        O  0.75959681  0.18494443  0.09726090    -0.73800
O198        O  0.86102863  0.21704515  0.99435731    -0.73200
O199        O  0.80561605  0.23347957  0.09914898    -0.73700
O200        O  0.81773694  0.28592036  0.03380572    -0.73600
O201        O  0.78626574  0.27325701  0.98228400    -0.73400
C202        C  0.70039971  0.18103383  0.99842836     0.78400
C203        C  0.76984864  0.12229270  0.01428239     0.78900
C204        C  0.79887095  0.20863190  0.90393378     0.77900
C205        C  0.87840265  0.24181159  0.01578832     0.78200
C206        C  0.78152968  0.20944891  0.11597345     0.79400
C207        C  0.80400757  0.29369294  0.00792651     0.78400
Zn208      Zn  0.75656016  0.18336684  0.47970836     1.49700
Zn209      Zn  0.81452569  0.19373037  0.53722996     1.49400
Zn210      Zn  0.82405227  0.24961409  0.47649508     1.49100
Zn211      Zn  0.77665766  0.23362484  0.54824461     1.49500
O212        O  0.79328219  0.21502583  0.51057470    -1.82900
O213        O  0.74721648  0.13819491  0.49154310    -0.73500
O214        O  0.86241199  0.21400823  0.51994832    -0.73300
O215        O  0.81001104  0.24021486  0.42130309    -0.72800
O216        O  0.78832875  0.14403301  0.52808612    -0.73500
O217        O  0.76410369  0.19187622  0.42307045    -0.73100
O218        O  0.86808865  0.25338460  0.48022174    -0.73700
O219        O  0.79749531  0.28226250  0.54149767    -0.73100
O220        O  0.81440326  0.19996981  0.59510563    -0.73800
O221        O  0.82869442  0.29349266  0.48979386    -0.73200
O222        O  0.78547227  0.22500084  0.60144044    -0.73700
O223        O  0.72823252  0.21613261  0.54265251    -0.73600
O224        O  0.71562937  0.18434157  0.49136266    -0.73400
C225        C  0.76131638  0.12585359  0.51057512     0.78400
C226        C  0.88001615  0.23809510  0.49765783     0.78900
C227        C  0.78601762  0.21625108  0.40429292     0.77900
C228        C  0.81664559  0.30258059  0.51660669     0.78200
C229        C  0.80091080  0.21207238  0.61612477     0.79400
C230        C  0.70764999  0.19787919  0.51742365     0.78400
Zn231      Zn  0.24911395  0.42094289  0.02409638     1.49700
Zn232      Zn  0.18661866  0.42869490  0.02287844     1.49400
Zn233      Zn  0.23664471  0.45534721  0.95359384     1.49100
Zn234      Zn  0.19102290  0.37717054  0.96430229     1.49500
O235        O  0.21555027  0.42008108  0.99104240    -1.82900
O236        O  0.23926113  0.42225926  0.07968824    -0.73500
O237        O  0.19026174  0.47233453  0.01004742    -0.73300
O238        O  0.28523656  0.48211464  0.96178006    -0.72800
O239        O  0.19574595  0.42846340  0.07945657    -0.73500
O240        O  0.29325809  0.46139690  0.01490680    -0.73100
O241        O  0.22122449  0.48823818  0.95788523    -0.73700
O242        O  0.19562994  0.38340962  0.90617839    -0.73100
O243        O  0.14024562  0.39331820  0.01407404    -0.73800
O244        O  0.22838889  0.43736189  0.90055249    -0.73200
O245        O  0.14207462  0.35534695  0.97776339    -0.73700
O246        O  0.20972862  0.34749577  0.97816036    -0.73600
O247        O  0.25155457  0.38014492  0.01609790    -0.73400
C248        C  0.21762233  0.42567254  0.09750331     0.78400
C249        C  0.20416317  0.49276712  0.98285357     0.78900
C250        C  0.30374461  0.48304530  0.98867781     0.77900
C251        C  0.21184665  0.40897992  0.88550006     0.78200
C252        C  0.12585822  0.36568619  0.99685254     0.79400
C253        C  0.23449444  0.35299107  0.99841678     0.78400
Zn254      Zn  0.23233828  0.45939940  0.53051029     1.49700
Zn255      Zn  0.19302713  0.38114289  0.51860089     1.49400
Zn256      Zn  0.18437249  0.42916713  0.46044567     1.49100
Zn257      Zn  0.25102909  0.42723564  0.46094866     1.49500
O258        O  0.21519216  0.42406541  0.49264378    -1.82900
O259        O  0.22289860  0.44153434  0.58405306    -0.73500
O260        O  0.14418035  0.35597201  0.50596669    -0.73300
O261        O  0.18358539  0.47075564  0.47222360    -0.72800
O262        O  0.19678387  0.38728955  0.57607743    -0.73500
O263        O  0.21386659  0.48952771  0.52449524    -0.73100
O264        O  0.13879041  0.39160527  0.46958239    -0.73700
O265        O  0.24090581  0.42692479  0.40463828    -0.73100
O266        O  0.21480096  0.35443886  0.50619057    -0.73800
O267        O  0.19541829  0.43001035  0.40450207    -0.73200
O268        O  0.25769783  0.38877740  0.47088097    -0.73700
O269        O  0.29380940  0.46919226  0.47259409    -0.73600
O270        O  0.28084231  0.48849364  0.52365312    -0.73400
C271        C  0.20894457  0.41253305  0.59770943     0.78400
C272        C  0.12629319  0.36440620  0.48750338     0.78900
C273        C  0.19583668  0.49179777  0.49915223     0.77900
C274        C  0.21833192  0.42864969  0.38672251     0.78200
C275        C  0.24127747  0.36153982  0.48854152     0.79400
C276        C  0.30177849  0.49063247  0.49903144     0.78400
C277        C  0.23128577  0.43199812  0.78088837    -0.26900
C278        C  0.20798277  0.40324407  0.76230002     0.06700
C279        C  0.18718490  0.37536488  0.78426016     0.26300
C280        C  0.18890673  0.37694391  0.82436385    -0.11400
C281        C  0.21147584  0.40627737  0.84308265    -0.25400
C282        C  0.23317969  0.43363208  0.82066138     0.37100
C283        C  0.20535252  0.40343858  0.72011064     0.06700
F284        F  0.16440516  0.34713482  0.76702468    -0.19200
H285        H  0.17201880  0.35544557  0.84076129     0.16500
F286        F  0.25626302  0.46222600  0.83696990    -0.22900
H287        H  0.24802396  0.45352716  0.76439156     0.18300
C288        C  0.20154447  0.42801091  0.70223357     0.26300
C289        C  0.20248053  0.43054144  0.66244956    -0.11400
C290        C  0.20671452  0.40836926  0.63965263    -0.25400
C291        C  0.20951059  0.38309402  0.65739403     0.37200
C292        C  0.20889730  0.38075405  0.69738977    -0.27100
F293        F  0.19698266  0.44965085  0.72335837    -0.19200
H294        H  0.19984206  0.44993123  0.64936392     0.16500
F295        F  0.21446045  0.36174282  0.63620844    -0.22900
H296        H  0.21226679  0.36189201  0.71068216     0.18300
C297        C  0.24657339  0.43447490  0.20043716    -0.26900
C298        C  0.21804006  0.42728132  0.22090591     0.06700
C299        C  0.18944403  0.41982277  0.20042824     0.26300
C300        C  0.18956582  0.41961475  0.16040144    -0.11400
C301        C  0.21800151  0.42643217  0.13992680    -0.25400
C302        C  0.24661745  0.43388523  0.16044926     0.37100
C303        C  0.21835343  0.42776224  0.26344762     0.06700
F304        F  0.16109848  0.41185555  0.21907441    -0.19200
H305        H  0.16713064  0.41355163  0.14538678     0.16500
F306        F  0.27490430  0.44129872  0.14199238    -0.22900
H307        H  0.26909961  0.44094070  0.21548670     0.18300
C308        C  0.23186674  0.41184650  0.28419079     0.26300
C309        C  0.23219970  0.41266668  0.32419977    -0.11400
C310        C  0.21860659  0.42883627  0.34436864    -0.25400
C311        C  0.20512559  0.44478982  0.32366861     0.37200
C312        C  0.20526372  0.44440953  0.28365454    -0.27100
F313        F  0.24388998  0.39466569  0.26585047    -0.19200
H314        H  0.24247531  0.39996715  0.33948710     0.16500
F315        F  0.19253318  0.46144922  0.34203456    -0.22900
H316        H  0.19536418  0.45746090  0.26838446     0.18300
C317        C  0.96661660  0.28388795  0.45821622    -0.26900
C318        C  0.98467895  0.28135598  0.48844607     0.06700
C319        C  0.96775498  0.26156988  0.52010747     0.26300
C320        C  0.93341335  0.24582916  0.52202936    -0.11400
C321        C  0.91548612  0.24989863  0.49268184    -0.25400
C322        C  0.93244320  0.26836141  0.46015569     0.37100
C323        C  0.02101294  0.30192818  0.48803545     0.06700
F324        F  0.98448549  0.25929835  0.55031044    -0.19200
H325        H  0.92101131  0.23195705  0.54746852     0.16500
F326        F  0.91609536  0.27208923  0.43050789    -0.22900
H327        H  0.97916322  0.29874345  0.43339335     0.18300
C328        C  0.04129849  0.28840556  0.49378157     0.26300
C329        C  0.07556042  0.30873726  0.49369612    -0.11400
C330        C  0.09009896  0.34276298  0.48743313    -0.25400
C331        C  0.06963156  0.35614363  0.48162729     0.37200
C332        C  0.03556124  0.33588994  0.48191792    -0.27100
F333        F  0.02802890  0.25551276  0.49853812    -0.19200
H334        H  0.09073523  0.29781252  0.49803846     0.16500
F335        F  0.08243118  0.38899128  0.47679819    -0.22900
H336        H  0.02039254  0.34687451  0.47788883     0.18300
C337        C  0.96839313  0.29123513  0.04342632    -0.26900
C338        C  0.98381466  0.29068505  0.00914496     0.06700
C339        C  0.96426046  0.27275066  0.97783330     0.26300
C340        C  0.93003077  0.25600691  0.98077836    -0.11400
C341        C  0.91458400  0.25722741  0.01471071    -0.25400
C342        C  0.93412824  0.27489715  0.04620004     0.37100
C343        C  0.02016658  0.30962103  0.00587019     0.06700
F344        F  0.97820906  0.27264165  0.94382994    -0.19200
H345        H  0.91554800  0.24302600  0.95591230     0.16500
F346        F  0.92017379  0.27622983  0.07970014    -0.22900
H347        H  0.98297292  0.30453213  0.06810152     0.18300
C348        C  0.03786152  0.34287757  0.01677436     0.26300
C349        C  0.07201195  0.36063679  0.01363091    -0.11400
C350        C  0.08945963  0.34584627  0.99935360    -0.25400
C351        C  0.07170423  0.31256715  0.98811390     0.37200
C352        C  0.03740461  0.29470262  0.99147734    -0.27100
F353        F  0.02208278  0.35851883  0.02956387    -0.19200
H354        H  0.08479913  0.38628800  0.02214319     0.16500
F355        F  0.08736342  0.29708776  0.97447864    -0.22900
H356        H  0.02426168  0.26900077  0.98317645     0.18300
C357        C  0.80586443  0.18495438  0.80181851    -0.26900
C358        C  0.80912542  0.21214658  0.78153866     0.06700
C359        C  0.81096168  0.23881084  0.80201092     0.26300
C360        C  0.80788340  0.23750027  0.84177700    -0.11400
C361        C  0.80355116  0.20991284  0.86203161    -0.25400
C362        C  0.80325176  0.18384434  0.84180339     0.37100
C363        C  0.80742690  0.21150925  0.73917425     0.06700
F364        F  0.81544927  0.26605664  0.78344192    -0.19200
H365        H  0.80884272  0.25814804  0.85682296     0.16500
F366        F  0.79871116  0.15661460  0.86043502    -0.22900
H367        H  0.80403756  0.16400370  0.78657554     0.18300
C368        C  0.82788689  0.20464523  0.71632826     0.26300
C369        C  0.82558599  0.20452012  0.67629417    -0.11400
C370        C  0.80288237  0.21123380  0.65848064    -0.25400
C371        C  0.78208270  0.21747719  0.68168306     0.37200
C372        C  0.78441003  0.21754007  0.72139677    -0.27100
F373        F  0.85060933  0.19894646  0.73264027    -0.19200
H374        H  0.84190310  0.19964064  0.65923772     0.16500
F375        F  0.75903543  0.22311904  0.66619622    -0.22900
H376        H  0.76786628  0.22210357  0.73846724     0.18300
C377        C  0.76481555  0.18357806  0.22013664    -0.26900
C378        C  0.77697686  0.21406924  0.23875459     0.06700
C379        C  0.78950423  0.24277636  0.21647166     0.26300
C380        C  0.79078424  0.24096111  0.17662863    -0.11400
C381        C  0.77903759  0.21053385  0.15809419    -0.25400
C382        C  0.76553883  0.18171100  0.18020461     0.37100
C383        C  0.77832610  0.21587203  0.28124670     0.06700
F384        F  0.80027557  0.27257090  0.23316355    -0.19200
H385        H  0.80081649  0.26347251  0.16012851     0.16500
F386        F  0.75440388  0.15191046  0.16339451    -0.22900
H387        H  0.75557762  0.16114969  0.23662517     0.18300
C388        C  0.75130327  0.19393796  0.30375026     0.26300
C389        C  0.75395485  0.19429098  0.34363067    -0.11400
C390        C  0.78340813  0.21674416  0.36199546    -0.25400
C391        C  0.81006189  0.23944669  0.33946474     0.37200
C392        C  0.80752140  0.23873668  0.29961005    -0.27100
F393        F  0.72222029  0.17237127  0.28723381    -0.19200
H394        H  0.73278887  0.17693564  0.36018513     0.16500
F395        F  0.83895289  0.26182602  0.35570425    -0.22900
H396        H  0.82885628  0.25563802  0.28296737     0.18300
C397        C  0.44788666  0.61955794  0.53604477    -0.26900
C398        C  0.43227199  0.60544041  0.50118283     0.06700
C399        C  0.44654987  0.62221766  0.46686194     0.26300
C400        C  0.47552811  0.65278070  0.46769773    -0.11400
C401        C  0.49018332  0.66747055  0.50269226    -0.25400
C402        C  0.47641959  0.65041982  0.53689986     0.37100
C403        C  0.39957967  0.57507107  0.50138428     0.06700
F404        F  0.43132879  0.61025821  0.43281313    -0.19200
H405        H  0.48549830  0.66586658  0.44107535     0.16500
F406        F  0.49034308  0.66379160  0.57113601    -0.22900
H407        H  0.43738246  0.60700661  0.56280684     0.18300
C408        C  0.39223329  0.54820331  0.47731892     0.26300
C409        C  0.36055675  0.52059140  0.47698598    -0.11400
C410        C  0.33574016  0.51918812  0.50079469    -0.25400
C411        C  0.34349901  0.54596234  0.52538933     0.37200
C412        C  0.37500061  0.57344208  0.52554031    -0.27100
F413        F  0.41572108  0.54846024  0.45451156    -0.19200
H414        H  0.35545233  0.50034590  0.45797735     0.16500
F415        F  0.32052862  0.54621910  0.54868420    -0.22900
H416        H  0.38001166  0.59395851  0.54405665     0.18300
C417        C  0.69897898  0.96490222  0.53700155    -0.26900
C418        C  0.69665544  0.98382430  0.50752743     0.06700
C419        C  0.67850760  0.96782348  0.47455382     0.26300
C420        C  0.66163351  0.93360714  0.47214174    -0.11400
C421        C  0.66284777  0.91451116  0.50215925    -0.25400
C422        C  0.68232325  0.93052306  0.53440208     0.37100
C423        C  0.71283276  0.02009972  0.51120371     0.06700
F424        F  0.67718606  0.98526120  0.44446344    -0.19200
H425        H  0.64727485  0.92199320  0.44671969     0.16500
F426        F  0.68409894  0.91305084  0.56414950    -0.22900
H427        H  0.71295420  0.97672710  0.56257787     0.18300
C428        C  0.69549784  0.03635521  0.50279784     0.26300
C429        C  0.71153458  0.07059151  0.50300190    -0.11400
C430        C  0.74500919  0.08951114  0.51245811    -0.25400
C431        C  0.76187213  0.07324114  0.52326873     0.37200
C432        C  0.74588884  0.03880871  0.52237345    -0.27100
F433        F  0.66290845  0.01915270  0.49470486    -0.19200
H434        H  0.69754905  0.08231511  0.49579253     0.16500
F435        F  0.79394984  0.09046982  0.53355908    -0.22900
H436        H  0.75959314  0.02676778  0.52944443     0.18300
C437        C  0.37843651  0.55882624  0.02608108    -0.26900
C438        C  0.39651863  0.57239334  0.99231949     0.06700
C439        C  0.38555981  0.55412635  0.95808380     0.26300
C440        C  0.35588114  0.52423765  0.95727012    -0.11400
C441        C  0.33730932  0.51142969  0.99075099    -0.25400
C442        C  0.34924768  0.52849153  0.02544454     0.37100
C443        C  0.42599415  0.60590901  0.99296564     0.06700
F444        F  0.40343846  0.56516676  0.92538959    -0.19200
H445        H  0.34711238  0.51124963  0.93031006     0.16500
F446        F  0.33147059  0.51705459  0.05817817    -0.22900
H447        H  0.38623850  0.57234889  0.05281464     0.18300
C448        C  0.43062042  0.62935102  0.96505989     0.26300
C449        C  0.45829882  0.66080960  0.96611447    -0.11400
C450        C  0.48169492  0.67002081  0.99542339    -0.25400
C451        C  0.47650701  0.64688049  0.02408711     0.37200
C452        C  0.44907094  0.61516377  0.02260254    -0.27100
F453        F  0.40780000  0.62238340  0.93751424    -0.19200
H454        H  0.46110529  0.67814906  0.94408425     0.16500
F455        F  0.49760398  0.65482692  0.05384895    -0.22900
H456        H  0.44588704  0.59774130  0.04470427     0.18300
C457        C  0.74518612  0.03576839  0.98331790    -0.26900
C458        C  0.73228405  0.01846225  0.01766620     0.06700
C459        C  0.73654814  0.03630139  0.05165215     0.26300
C460        C  0.75009995  0.07037218  0.05055077    -0.11400
C461        C  0.76075775  0.08739839  0.01580707    -0.25400
C462        C  0.75958364  0.07007745  0.98239465     0.37100
C463        C  0.71098648  0.98209261  0.01711849     0.06700
F464        F  0.72644576  0.02061160  0.08578224    -0.19200
H465        H  0.75150198  0.08336039  0.07664435     0.16500
F466        F  0.76984806  0.08589242  0.94835188    -0.22900
H467        H  0.74234342  0.02263175  0.95692457     0.18300
C468        C  0.67942617  0.96741119  0.03341632     0.26300
C469        C  0.65839696  0.93352454  0.03121703    -0.11400
C470        C  0.66785555  0.91323031  0.01219534    -0.25400
C471        C  0.69958437  0.92784686  0.99596517     0.37200
C472        C  0.72084338  0.96200632  0.99837996    -0.27100
F473        F  0.66816687  0.98600859  0.04990393    -0.19200
H474        H  0.63410256  0.92330089  0.04370871     0.16500
F475        F  0.71003102  0.90934540  0.97755423    -0.22900
H476        H  0.74503065  0.97285691  0.98540538     0.18300
C477        C  0.57013379  0.81216638  0.79364650    -0.26900
C478        C  0.58963769  0.80304437  0.77235076     0.06700
C479        C  0.61000924  0.79410166  0.79203741     0.26300
C480        C  0.61036518  0.79386866  0.83205040    -0.11400
C481        C  0.58985044  0.80167062  0.85306599    -0.25400
C482        C  0.56990533  0.81112353  0.83360644     0.37100
C483        C  0.58819787  0.80224154  0.72982426     0.06700
F484        F  0.62843169  0.78407901  0.77267868    -0.19200
H485        H  0.62561662  0.78621330  0.84661613     0.16500
F486        F  0.55038513  0.81960219  0.85329819    -0.22900
H487        H  0.55488654  0.81994049  0.77932788     0.18300
C488        C  0.55792487  0.78744967  0.71043066     0.26300
C489        C  0.55697716  0.78554867  0.67045276    -0.11400
C490        C  0.58609236  0.79819738  0.64887710    -0.25400
C491        C  0.61638525  0.81355794  0.66837019     0.37200
C492        C  0.61728945  0.81565620  0.70827584    -0.27100
F493        F  0.52914326  0.77377143  0.73007167    -0.19200
H494        H  0.53330195  0.77369504  0.65643849     0.16500
F495        F  0.64529065  0.82644067  0.64910084    -0.22900
H496        H  0.64091372  0.82781565  0.72240226     0.18300
C497        C  0.56170372  0.79568836  0.21016049    -0.26900
C498        C  0.58311883  0.78746673  0.22836818     0.06700
C499        C  0.60234395  0.77874252  0.20576388     0.26300
C500        C  0.59999178  0.77824935  0.16586228    -0.11400
C501        C  0.57906604  0.78714547  0.14780661    -0.25400
C502        C  0.55995594  0.79595378  0.17029810     0.37100
C503        C  0.58512642  0.78808318  0.27078296     0.06700
F504        F  0.62410388  0.77166800  0.22213005    -0.19200
H505        H  0.61515278  0.77166230  0.14897155     0.16500
F506        F  0.53891838  0.80393503  0.15377239    -0.22900
H507        H  0.54605469  0.80172486  0.22688206     0.18300
C508        C  0.58739738  0.81472585  0.29171217     0.26300
C509        C  0.58785080  0.81454867  0.33160802    -0.11400
C510        C  0.58625817  0.78797001  0.35170956    -0.25400
C511        C  0.58471833  0.76157655  0.33073347     0.37200
C512        C  0.58400562  0.76167326  0.29071531    -0.27100
F513        F  0.58956201  0.84120996  0.27362251    -0.19200
H514        H  0.58928805  0.83535369  0.34677154     0.16500
F515        F  0.58333965  0.73539220  0.34867669    -0.22900
H516        H  0.58186197  0.74067167  0.27528320     0.18300
C517        C  0.83991374  0.45322746  0.54170983    -0.26900
C518        C  0.82756862  0.43001666  0.51194114     0.06700
C519        C  0.81157977  0.43495229  0.48107049     0.26300
C520        C  0.80767094  0.46241215  0.48037291    -0.11400
C521        C  0.81950572  0.48550448  0.51043229    -0.25400
C522        C  0.83610642  0.48082221  0.54101354     0.37100
C523        C  0.82877285  0.39931624  0.51480670     0.06700
F524        F  0.79825927  0.41238618  0.45250072    -0.19200
H525        H  0.79477379  0.46523310  0.45645577     0.16500
F526        F  0.84780368  0.50223865  0.57082475    -0.22900
H527        H  0.85212096  0.44967434  0.56585084     0.18300
C528        C  0.84102395  0.38868843  0.48468757     0.26300
C529        C  0.83846854  0.35781433  0.48626199    -0.11400
C530        C  0.82352354  0.33695823  0.51778864    -0.25400
C531        C  0.81282442  0.34847900  0.54878641     0.37200
C532        C  0.81553451  0.37936510  0.54719141    -0.27100
F533        F  0.85498032  0.40793519  0.45350664    -0.19200
H534        H  0.84714689  0.34979915  0.46212283     0.16500
F535        F  0.79882062  0.32963692  0.58024141    -0.22900
H536        H  0.80603521  0.38718540  0.57071288     0.18300
C537        C  0.71681648  0.75204352  0.53143185    -0.26900
C538        C  0.71387965  0.72862193  0.50425143     0.06700
C539        C  0.68965865  0.71855149  0.47585661     0.26300
C540        C  0.66857910  0.73126684  0.47503291    -0.11400
C541        C  0.67097629  0.75432316  0.50247399    -0.25400
C542        C  0.69577309  0.76501849  0.53049143     0.37100
C543        C  0.73379750  0.71236105  0.50734212     0.06700
F544        F  0.68517626  0.69504171  0.45001480    -0.19200
H545        H  0.64985568  0.72247192  0.45310877     0.16500
F546        F  0.69904772  0.78708712  0.55774704    -0.22900
H547        H  0.73515774  0.75993458  0.55373539     0.18300
C548        C  0.75087765  0.70992813  0.47554152     0.26300
C549        C  0.76485435  0.68983441  0.47703458    -0.11400
C550        C  0.76180152  0.67161852  0.51010325    -0.25400
C551        C  0.74669493  0.67588919  0.54274313     0.37200
C552        C  0.73297592  0.69617924  0.54131765    -0.27100
F553        F  0.75319274  0.72622771  0.44267029    -0.19200
H554        H  0.77667785  0.68729515  0.45167461     0.16500
F555        F  0.74455596  0.65991150  0.57582855    -0.22900
H556        H  0.72020622  0.69792159  0.56624550     0.18300
C557        C  0.80663779  0.37124178  0.97467994    -0.26900
C558        C  0.80900255  0.38715312  0.00953922     0.06700
C559        C  0.81154845  0.37304547  0.04378082     0.26300
C560        C  0.81120773  0.34317397  0.04297106    -0.11400
C561        C  0.80780966  0.32675732  0.00813322    -0.25400
C562        C  0.80599444  0.34130874  0.97387051     0.37100
C563        C  0.80698612  0.41745592  0.00971485     0.06700
F564        F  0.81266344  0.38724431  0.07805048    -0.19200
H565        H  0.81225098  0.33220528  0.06973733     0.16500
F566        F  0.80360785  0.32662696  0.93957666    -0.22900
H567        H  0.80491375  0.38191848  0.94800078     0.18300
C568        C  0.83142252  0.44655425  0.02691342     0.26300
C569        C  0.82928855  0.47510706  0.02572423    -0.11400
C570        C  0.80284018  0.47513658  0.00728057    -0.25400
C571        C  0.77823182  0.44574414  0.99043445     0.37200
C572        C  0.78046082  0.41733638  0.99161909    -0.27100
F573        F  0.85777354  0.44760898  0.04387248    -0.19200
H574        H  0.84857884  0.49732512  0.03892135     0.16500
F575        F  0.75166452  0.44412904  0.97333810    -0.22900
H576        H  0.76122657  0.39499181  0.97854213     0.18300
C577        C  0.74068482  0.70170942  0.97531513    -0.26900
C578        C  0.72373995  0.70380345  0.00737747     0.06700
C579        C  0.72472298  0.68883060  0.04174890     0.26300
C580        C  0.74034049  0.67033938  0.04315552    -0.11400
C581        C  0.75585290  0.66678499  0.01061139    -0.25400
C582        C  0.75675989  0.68350993  0.97687356     0.37100
C583        C  0.70243295  0.71859820  0.00417478     0.06700
F584        F  0.70989031  0.69146339  0.07385039    -0.19200
H585        H  0.73965100  0.65811127  0.06964305     0.16500
F586        F  0.77115578  0.68043429  0.94465221    -0.22900
H587        H  0.74007429  0.71276989  0.94843695     0.18300
C588        C  0.71363750  0.74982052  0.98792542     0.26300
C589        C  0.69278364  0.76301558  0.98603331    -0.11400
C590        C  0.66042717  0.74532521  0.00023903    -0.25400
C591        C  0.64918062  0.71370114  0.01553760     0.37200
C592        C  0.66991269  0.70066692  0.01728889    -0.27100
F593        F  0.74494130  0.76793478  0.97491342    -0.19200
H594        H  0.70216261  0.78732222  0.97401654     0.16500
F595        F  0.61800109  0.69501138  0.02875786    -0.22900
H596        H  0.66035118  0.67617394  0.02886681     0.18300
C597        C  0.77660521  0.55536946  0.79788746    -0.26900
C598        C  0.79536822  0.58546792  0.77917617     0.06700
C599        C  0.81305987  0.61434921  0.80073049     0.26300
C600        C  0.81193227  0.61302680  0.84072941    -0.11400
C601        C  0.79307447  0.58285811  0.85984033    -0.25400
C602        C  0.77530976  0.55391889  0.83780986     0.37100
C603        C  0.79625124  0.58637760  0.73707822     0.06700
F604        F  0.83157475  0.64372681  0.78304659    -0.19200
H605        H  0.82590584  0.63568797  0.85672979     0.16500
F606        F  0.75648127  0.52417102  0.85460504    -0.22900
H607        H  0.76279507  0.53292247  0.78143098     0.18300
C608        C  0.81697616  0.57833665  0.71685724     0.26300
C609        C  0.81669731  0.57788405  0.67686686    -0.11400
C610        C  0.79541950  0.58504124  0.65640431    -0.25400
C611        C  0.77480893  0.59335540  0.67697625     0.37200
C612        C  0.77539073  0.59408402  0.71699158    -0.27100
F613        F  0.83727742  0.57069879  0.73587015    -0.19200
H614        H  0.83277236  0.57134479  0.66192421     0.16500
F615        F  0.75425140  0.60099627  0.65857407    -0.22900
H616        H  0.75925174  0.60028192  0.73240262     0.18300
C617        C  0.81203169  0.61010679  0.29817428    -0.26900
C618        C  0.79998922  0.57997567  0.27911640     0.06700
C619        C  0.78802545  0.55093446  0.30026239     0.26300
C620        C  0.78737750  0.55201428  0.34015217    -0.11400
C621        C  0.79890550  0.58212930  0.35961490    -0.25400
C622        C  0.81178566  0.61134680  0.33810640     0.37100
C623        C  0.79839462  0.57887248  0.23712575     0.06700
F624        F  0.77606827  0.52147831  0.28227468    -0.19200
H625        H  0.77755820  0.52912327  0.35576671     0.16500
F626        F  0.82378022  0.64106935  0.35541652    -0.22900
H627        H  0.82141332  0.63268476  0.28198748     0.18300
C628        C  0.77562824  0.58462509  0.21826719     0.26300
C629        C  0.77419802  0.58392206  0.17840961    -0.11400
C630        C  0.79561658  0.57766831  0.15663416    -0.25400
C631        C  0.81837106  0.57167354  0.17584006     0.37200
C632        C  0.81954127  0.57215490  0.21581807    -0.27100
F633        F  0.75451616  0.59053023  0.23853349    -0.19200
H634        H  0.75632704  0.58844380  0.16461130     0.16500
F635        F  0.83936294  0.56517198  0.15621933    -0.22900
H636        H  0.83714477  0.56756345  0.23021682     0.18300
C637        C  0.37680231  0.80395312  0.44820402    -0.26900
C638        C  0.39801343  0.81859478  0.47926184     0.06700
C639        C  0.38884517  0.83243314  0.50903004     0.26300
C640        C  0.35826126  0.83044552  0.50844828    -0.11400
C641        C  0.33606894  0.81426580  0.47836524    -0.25400
C642        C  0.34600785  0.80158934  0.44770717     0.37100
C643        C  0.42792226  0.81618281  0.48265906     0.06700
F644        F  0.40916932  0.84702182  0.53922211    -0.19200
H645        H  0.35150525  0.84054905  0.53236380     0.16500
F646        F  0.32573402  0.78606629  0.41773819    -0.22900
H647        H  0.38353933  0.79305339  0.42510440     0.18300
C648        C  0.42942776  0.79581767  0.51074125     0.26300
C649        C  0.45738413  0.79306286  0.51430015    -0.11400
C650        C  0.48453556  0.81053370  0.48989293    -0.25400
C651        C  0.48291155  0.83098097  0.46151455     0.37200
C652        C  0.45468283  0.83356053  0.45791231    -0.27100
F653        F  0.40343190  0.77798099  0.53425188    -0.19200
H654        H  0.45755894  0.77688865  0.53611879     0.16500
F655        F  0.50837998  0.84839300  0.43717302    -0.22900
H656        H  0.45374877  0.84926236  0.43598685     0.18300
C657        C  0.20096381  0.57275819  0.52583444    -0.26900
C658        C  0.18080413  0.57485712  0.49794923     0.06700
C659        C  0.16415431  0.54876197  0.47203157     0.26300
C660        C  0.16842334  0.52147240  0.47334308    -0.11400
C661        C  0.18955596  0.51973288  0.50035255    -0.25400
C662        C  0.20545500  0.54559093  0.52709295     0.37100
C663        C  0.17969380  0.60556055  0.49398970     0.06700
F664        F  0.14400830  0.54985734  0.44520050    -0.19200
H665        H  0.15559858  0.50194555  0.45260149     0.16500
F666        F  0.22624205  0.54534367  0.55365568    -0.22900
H667        H  0.21427833  0.59284990  0.54580057     0.18300
C668        C  0.17068679  0.61855625  0.52487405     0.26300
C669        C  0.17315504  0.64935454  0.52173421    -0.11400
C670        C  0.18514942  0.66793877  0.48797885    -0.25400
C671        C  0.19289751  0.65417790  0.45657891     0.37200
C672        C  0.19006094  0.62327387  0.45965866    -0.27100
F673        F  0.15999802  0.60168059  0.55821795    -0.19200
H674        H  0.16690701  0.65921481  0.54633111     0.16500
F675        F  0.20390996  0.67079652  0.42311383    -0.22900
H676        H  0.19719692  0.61365838  0.43557541     0.18300
C677        C  0.04206256  0.74190448  0.46487321    -0.26900
C678        C  0.02437028  0.72339084  0.49691873     0.06700
C679        C  0.04176640  0.72332446  0.52949710     0.26300
C680        C  0.07589617  0.73907359  0.52882751    -0.11400
C681        C  0.09359107  0.75588507  0.49606762    -0.25400
C682        C  0.07647905  0.75836279  0.46451991     0.37100
C683        C  0.98809309  0.70209391  0.49583302     0.06700
F684        F  0.02568821  0.70732447  0.56183572    -0.19200
H685        H  0.08851597  0.73744635  0.55382022     0.16500
F686        F  0.09276697  0.77480855  0.43249958    -0.22900
H687        H  0.02926480  0.74235583  0.43943819     0.18300
C688        C  0.96748777  0.71363608  0.48295179     0.26300
C689        C  0.93327589  0.69333396  0.48504609    -0.11400
C690        C  0.91914358  0.66135427  0.50012964    -0.25400
C691        C  0.93990797  0.64946508  0.51127862     0.37200
C692        C  0.97384051  0.66954436  0.50880145    -0.27100
F693        F  0.98030146  0.74479119  0.46967202    -0.19200
H694        H  0.91786165  0.70292050  0.47570484     0.16500
F695        F  0.92756581  0.61826651  0.52428179    -0.22900
H696        H  0.98913979  0.65960049  0.51739479     0.18300
C697        C  0.43563296  0.80973908  0.96346389    -0.26900
C698        C  0.43275559  0.83052603  0.99006404     0.06700
C699        C  0.45789643  0.84714426  0.01717096     0.26300
C700        C  0.48471670  0.84203861  0.01831264    -0.11400
C701        C  0.48704986  0.82032940  0.99243999    -0.25400
C702        C  0.46237360  0.80472482  0.96438749     0.37100
C703        C  0.40210922  0.83220423  0.99120063     0.06700
F704        F  0.45643952  0.86818680  0.04267739    -0.19200
H705        H  0.50339100  0.85470204  0.03991386     0.16500
F706        F  0.46336890  0.78379285  0.93830767    -0.22900
H707        H  0.41642245  0.79628096  0.94265275     0.18300
C708        C  0.38829770  0.83639986  0.95754752     0.26300
C709        C  0.35721299  0.83340466  0.95841353    -0.11400
C710        C  0.33914359  0.82577916  0.99267096    -0.25400
C711        C  0.35363370  0.82310770  0.02659556     0.37200
C712        C  0.38475951  0.82633023  0.02576050    -0.27100
F713        F  0.40454099  0.84269737  0.92367335    -0.19200
H714        H  0.34668237  0.83564243  0.93189995     0.16500
F715        F  0.33748018  0.81673043  0.06053441    -0.22900
H716        H  0.39467663  0.82271892  0.05199672     0.18300
C717        C  0.18889368  0.62437548  0.95116138    -0.26900
C718        C  0.19895074  0.61345265  0.98289774     0.06700
C719        C  0.21002287  0.63342742  0.01576715     0.26300
C720        C  0.21058499  0.66339249  0.01695526    -0.11400
C721        C  0.20023787  0.67433426  0.98543214    -0.25400
C722        C  0.18937228  0.65441469  0.95234120     0.37100
C723        C  0.19849592  0.58162497  0.98150126     0.06700
F724        F  0.22132329  0.62448202  0.04640226    -0.19200
H725        H  0.21942531  0.67820143  0.04266730     0.16500
F726        F  0.18000255  0.66423196  0.92075739    -0.22900
H727        H  0.18051973  0.60951629  0.92543528     0.18300
C728        C  0.18325643  0.55815633  0.01065045     0.26300
C729        C  0.18462983  0.52916572  0.01037466    -0.11400
C730        C  0.20113257  0.52274870  0.98099375    -0.25400
C731        C  0.21552099  0.54585398  0.95108967     0.37200
C732        C  0.21407891  0.57488234  0.95141717    -0.27100
F733        F  0.16678690  0.56313880  0.03937800    -0.19200
H734        H  0.17306360  0.51192370  0.03357550     0.16500
F735        F  0.23143057  0.54080087  0.92175097    -0.22900
H736        H  0.22587483  0.59252404  0.92862090     0.18300
C737        C  0.03540005  0.71194159  0.96250705    -0.26900
C738        C  0.02106910  0.71507774  0.99631064     0.06700
C739        C  0.04138294  0.73401360  0.02658779     0.26300
C740        C  0.07554939  0.74942085  0.02305431    -0.11400
C741        C  0.09000539  0.74550937  0.98966884    -0.25400
C742        C  0.06954255  0.72672347  0.95923940     0.37100
C743        C  0.98495075  0.69667369  0.00068343     0.06700
F744        F  0.02812164  0.73734249  0.05965201    -0.19200
H745        H  0.09070497  0.76358190  0.04697929     0.16500
F746        F  0.08248278  0.72265712  0.92633578    -0.22900
H747        H  0.02001964  0.69721051  0.93900665     0.18300
C748        C  0.96483899  0.70322525  0.97721053     0.26300
C749        C  0.93058731  0.68409871  0.98019885    -0.11400
C750        C  0.91583651  0.65782240  0.00628536    -0.25400
C751        C  0.93628448  0.65181252  0.03025568     0.37200
C752        C  0.97041720  0.67120136  0.02749073    -0.27100
F753        F  0.97836495  0.72808193  0.95139341    -0.19200
H754        H  0.91563862  0.68940413  0.96144590     0.16500
F755        F  0.92348485  0.62696995  0.05614603    -0.22900
H756        H  0.98562066  0.66578461  0.04568917     0.18300
C757        C  0.20958358  0.76526134  0.69828179    -0.26900
C758        C  0.21757194  0.79483358  0.71709601     0.06700
C759        C  0.22732951  0.82331605  0.69506981     0.26300
C760        C  0.22896626  0.82200977  0.65521988    -0.11400
C761        C  0.22009640  0.79224350  0.63659619    -0.25400
C762        C  0.21034602  0.76379810  0.65840154     0.37100
C763        C  0.21613510  0.79574662  0.75952515     0.06700
F764        F  0.23422101  0.85214019  0.71187175    -0.19200
H765        H  0.23616794  0.84411688  0.63873545     0.16500
F766        F  0.20225459  0.73478695  0.64118139    -0.22900
H767        H  0.20288495  0.74317227  0.71453816     0.18300
C768        C  0.18949365  0.77065261  0.77985854     0.26300
C769        C  0.18948421  0.77057366  0.81981675    -0.11400
C770        C  0.21574936  0.79566472  0.84047395    -0.25400
C771        C  0.24174874  0.82155977  0.82007103     0.37200
C772        C  0.24199553  0.82128457  0.78010646    -0.27100
F773        F  0.16328356  0.74627938  0.76114305    -0.19200
H774        H  0.16883629  0.75058860  0.83459860     0.16500
F775        F  0.26732238  0.84691154  0.83851106    -0.22900
H776        H  0.26297656  0.84078757  0.76522387     0.18300
C777        C  0.18803845  0.80379583  0.19634712    -0.26900
C778        C  0.20744115  0.79489331  0.21781385     0.06700
C779        C  0.22802337  0.78598434  0.19851473     0.26300
C780        C  0.22878179  0.78553524  0.15865200    -0.11400
C781        C  0.20927800  0.79417838  0.13695165    -0.25400
C782        C  0.18889333  0.80352254  0.15628161     0.37100
C783        C  0.20584048  0.79406793  0.26020478     0.06700
F784        F  0.24793132  0.77824777  0.21824689    -0.19200
H785        H  0.24500493  0.77860875  0.14475539     0.16500
F786        F  0.16939259  0.81187635  0.13667487    -0.22900
H787        H  0.17174895  0.81043335  0.21065043     0.18300
C788        C  0.20965641  0.82115908  0.28163311     0.26300
C789        C  0.21015064  0.82042956  0.32168844    -0.11400
C790        C  0.20728161  0.79292206  0.34088655    -0.25400
C791        C  0.20254886  0.76555357  0.31939554     0.37200
C792        C  0.20159762  0.76612145  0.27955715    -0.27100
F793        F  0.21432068  0.84879582  0.26390002    -0.19200
H794        H  0.21385492  0.84181694  0.33768842     0.16500
F795        F  0.19849992  0.73805136  0.33688327    -0.22900
H796        H  0.19781578  0.74465845  0.26365745     0.18300
C797        C  0.56109691  0.38721461  0.46560095    -0.26900
C798        C  0.57455467  0.40323376  0.50048907     0.06700
C799        C  0.55736111  0.38889417  0.53462715     0.26300
C800        C  0.52842060  0.35818595  0.53381326    -0.11400
C801        C  0.51652534  0.34108333  0.49913682    -0.25400
C802        C  0.53264229  0.35631805  0.46486157     0.37100
C803        C  0.60784892  0.43299750  0.50109283     0.06700
F804        F  0.56972539  0.40332592  0.56897103    -0.19200
H805        H  0.51648242  0.34684266  0.56059229     0.16500
F806        F  0.52136888  0.34096744  0.43067449    -0.22900
H807        H  0.57339363  0.39814485  0.43883670     0.18300
C808        C  0.63369688  0.43304909  0.48084327     0.26300
C809        C  0.66521355  0.46039623  0.48201194    -0.11400
C810        C  0.67211473  0.48836481  0.50374368    -0.25400
C811        C  0.64627263  0.48846318  0.52402465     0.37200
C812        C  0.61443212  0.46101354  0.52253895    -0.27100
F813        F  0.62885561  0.40610641  0.46100266    -0.19200
H814        H  0.68448211  0.45922743  0.46637506     0.16500
F815        F  0.65163486  0.51493101  0.54521317    -0.22900
H816        H  0.59486967  0.46165698  0.53813804     0.18300
C817        C  0.62376206  0.17964666  0.48418180    -0.26900
C818        C  0.61371594  0.19166851  0.51496867     0.06700
C819        C  0.63348497  0.20333389  0.54779341     0.26300
C820        C  0.66352461  0.20425194  0.54893358    -0.11400
C821        C  0.67428317  0.19341993  0.51749834    -0.25400
C822        C  0.65370158  0.18044290  0.48527766     0.37100
C823        C  0.58350063  0.19354277  0.51178563     0.06700
F824        F  0.62454526  0.21535366  0.57797010    -0.19200
H825        H  0.67875700  0.21424123  0.57414704     0.16500
F826        F  0.66295254  0.16977843  0.45409584    -0.22900
H827        H  0.60859608  0.17017673  0.45883256     0.18300
C828        C  0.57894001  0.20935032  0.48039226     0.26300
C829        C  0.55080385  0.21188642  0.47794954    -0.11400
C830        C  0.52664522  0.19873407  0.50669963    -0.25400
C831        C  0.53120285  0.18270911  0.53806783     0.37200
C832        C  0.55940663  0.18019040  0.54044137    -0.27100
F833        F  0.60219376  0.22327182  0.45265792    -0.19200
H834        H  0.54810695  0.22445927  0.45356137     0.16500
F835        F  0.50886859  0.17004854  0.56688380    -0.22900
H836        H  0.56248586  0.16780179  0.56476857     0.18300
C837        C  0.27025442  0.96764091  0.46713807    -0.26900
C838        C  0.28864625  0.98487449  0.49942407     0.06700
C839        C  0.28903641  0.96697888  0.53135936     0.26300
C840        C  0.27375759  0.93275635  0.52965132    -0.11400
C841        C  0.25702355  0.91559446  0.49653785    -0.25400
C842        C  0.25436685  0.93323911  0.46570749     0.37100
C843        C  0.30912844  0.02130128  0.49877606     0.06700
F844        F  0.30460963  0.98263604  0.56406893    -0.19200
H845        H  0.27540685  0.91963870  0.55415428     0.16500
F846        F  0.23819324  0.91748693  0.43333176    -0.22900
H847        H  0.26940700  0.98090337  0.44232751     0.18300
C848        C  0.34246761  0.03683736  0.50899477     0.26300
C849        C  0.36171049  0.07105268  0.50903960    -0.11400
C850        C  0.34848419  0.09068790  0.49815728    -0.25400
C851        C  0.31539413  0.07516606  0.48659615     0.37200
C852        C  0.29592253  0.04075495  0.48705666    -0.27100
F853        F  0.35675799  0.01890738  0.51799494    -0.19200
H854        H  0.38726808  0.08220679  0.51721076     0.16500
F855        F  0.30162299  0.09314003  0.47574224    -0.22900
H856        H  0.27038145  0.02928264  0.47872184     0.18300
C857        C  0.25391701  0.29019350  0.51523359    -0.26900
C858        C  0.28175477  0.29731911  0.49340122     0.06700
C859        C  0.29542153  0.32486236  0.46918874     0.26300
C860        C  0.28167295  0.34504391  0.46720372    -0.11400
C861        C  0.25396418  0.33830099  0.48928583    -0.25400
C862        C  0.24000624  0.31034508  0.51319823     0.37100
C863        C  0.29755134  0.27706234  0.49680581     0.06700
F864        F  0.32294063  0.33304004  0.44855073    -0.19200
H865        H  0.29317556  0.36636353  0.44871477     0.16500
F866        F  0.21344567  0.30281356  0.53536235    -0.22900
H867        H  0.24305003  0.26906579  0.53405396     0.18300
C868        C  0.30901217  0.27311879  0.53234763     0.26300
C869        C  0.32873706  0.25879858  0.53418924    -0.11400
C870        C  0.33659778  0.24745665  0.50083336    -0.25400
C871        C  0.32315967  0.24924864  0.46572333     0.37200
C872        C  0.30402357  0.26417220  0.46377896    -0.27100
F873        F  0.30293673  0.28499259  0.56489402    -0.19200
H874        H  0.33869602  0.25743366  0.56154872     0.16500
F875        F  0.33055027  0.23886428  0.43287069    -0.22900
H876        H  0.29517013  0.26673727  0.43619487     0.18300
C877        C  0.43333761  0.24564860  0.70994436    -0.26900
C878        C  0.42326580  0.21638274  0.73009634     0.06700
C879        C  0.41419325  0.18725766  0.70968873     0.26300
C880        C  0.41532418  0.18756602  0.66972345    -0.11400
C881        C  0.42525005  0.21683754  0.64942051    -0.25400
C882        C  0.43435653  0.24599704  0.67002441     0.37100
C883        C  0.42291919  0.21654800  0.77237781     0.06700
F884        F  0.40502288  0.15869766  0.72843786    -0.19200
H885        H  0.40828929  0.16480799  0.65465680     0.16500
F886        F  0.44489418  0.27503705  0.65176359    -0.22900
H887        H  0.44037934  0.26832143  0.72522469     0.18300
C888        C  0.45121700  0.23838077  0.79292340     0.26300
C889        C  0.45107745  0.23760470  0.83282890    -0.11400
C890        C  0.42267054  0.21527844  0.85308931    -0.25400
C891        C  0.39405080  0.19398299  0.83241092     0.37200
C892        C  0.39434187  0.19458482  0.79241445    -0.27100
F893        F  0.47931808  0.25979371  0.77438394    -0.19200
H894        H  0.47339142  0.25447021  0.84787603     0.16500
F895        F  0.36599139  0.17208576  0.85062898    -0.22900
H896        H  0.37219333  0.17785339  0.77699326     0.18300
C897        C  0.45156452  0.21726652  0.29160851    -0.26900
C898        C  0.42383058  0.21301638  0.27199997     0.06700
C899        C  0.39667280  0.20933874  0.29286231     0.26300
C900        C  0.39728190  0.20964492  0.33286912    -0.11400
C901        C  0.42516159  0.21414606  0.35265533    -0.25400
C902        C  0.45245243  0.21812565  0.33153833     0.37100
C903        C  0.42350383  0.21218170  0.22978703     0.06700
F904        F  0.36938039  0.20483872  0.27454555    -0.19200
H905        H  0.37602158  0.20666392  0.34838580     0.16500
F906        F  0.47978891  0.22221765  0.34935898    -0.22900
H907        H  0.47269801  0.22016258  0.27585961     0.18300
C908        C  0.42031448  0.23570212  0.20871070     0.26300
C909        C  0.42145146  0.23543926  0.16877841    -0.11400
C910        C  0.42563045  0.21163580  0.14907318    -0.25400
C911        C  0.42834701  0.18777681  0.17043991     0.37200
C912        C  0.42751333  0.18830982  0.21040251    -0.27100
F913        F  0.41709456  0.25950666  0.22677822    -0.19200
H914        H  0.41926035  0.25414164  0.15328961     0.16500
F915        F  0.43206400  0.16406621  0.15294864    -0.22900
H916        H  0.42995941  0.16996027  0.22637436     0.18300
C917        C  0.61878620  0.44978469  0.97461145    -0.26900
C918        C  0.60411633  0.43371745  0.00898826     0.06700
C919        C  0.61959858  0.44800800  0.04388876     0.26300
C920        C  0.65023780  0.47696613  0.04399732    -0.11400
C921        C  0.66596299  0.49158375  0.00936993    -0.25400
C922        C  0.64948171  0.47834039  0.97467707     0.37100
C923        C  0.57526803  0.40014368  0.00748007     0.06700
F924        F  0.60650764  0.43258408  0.07756121    -0.19200
H925        H  0.66267884  0.48662922  0.07101387     0.16500
F926        F  0.66360784  0.49229839  0.94071201    -0.22900
H927        H  0.60706688  0.43926197  0.94746731     0.18300
C928        C  0.54647881  0.39122805  0.02837551     0.26300
C929        C  0.51999741  0.35891647  0.02661559    -0.11400
C930        C  0.52183659  0.33509881  0.00394470    -0.25400
C931        C  0.55079187  0.34432031  0.98300092     0.37200
C932        C  0.57706154  0.37644763  0.98484608    -0.27100
F933        F  0.54375160  0.41382048  0.04984921    -0.19200
H934        H  0.49801258  0.35258829  0.04288838     0.16500
F935        F  0.55421210  0.32225894  0.96126995    -0.18100
H936        H  0.59921903  0.38276669  0.96891265     0.18300
C937        C  0.62481626  0.17944856  0.95939644    -0.26900
C938        C  0.60460581  0.17054492  0.99190672     0.06700
C939        C  0.61398126  0.16035444  0.02490872     0.26300
C940        C  0.64434113  0.16164229  0.02614530    -0.11400
C941        C  0.66578953  0.17312035  0.99453204    -0.25400
C942        C  0.65501628  0.18067888  0.96052673     0.37100
C943        C  0.57577030  0.17527870  0.99221094     0.06700
F944        F  0.59495487  0.15150916  0.05682703    -0.19200
H945        H  0.65187787  0.15554553  0.05263253     0.16500
F946        F  0.67414533  0.19042010  0.92866413    -0.22900
H947        H  0.61769953  0.18670143  0.93341355     0.18300
C948        C  0.57990871  0.20624394  0.98322607     0.26300
C949        C  0.55313507  0.21123173  0.98391429    -0.11400
C950        C  0.52169935  0.18565204  0.99404320    -0.25400
C951        C  0.51742637  0.15456777  0.00290905     0.37200
C952        C  0.54430887  0.14949190  0.00198273    -0.27100
F953        F  0.61013915  0.23204657  0.97499498    -0.19200
H954        H  0.55717667  0.23548403  0.97736716     0.16500
F955        F  0.48721830  0.12896958  0.01157718    -0.22900
H956        H  0.54056075  0.12537978  0.00866632     0.18300
C957        C  0.29253589  0.04061619  0.97761180    -0.26900
C958        C  0.29919656  0.02012123  0.00017894     0.06700
C959        C  0.32648191  0.03421142  0.02458522     0.26300
C960        C  0.34722879  0.06826210  0.02566949    -0.11400
C961        C  0.34121182  0.08903371  0.00248802    -0.25400
C962        C  0.31312634  0.07482340  0.97891308     0.37100
C963        C  0.27955603  0.98402922  0.99590027     0.06700
F964        F  0.33398888  0.01490731  0.04598391    -0.19200
H965        H  0.36852420  0.07827299  0.04415123     0.16500
F966        F  0.30588997  0.09374007  0.95643138    -0.22900
H967        H  0.27158911  0.03001780  0.95855208     0.18300
C968        C  0.26262983  0.96379135  0.02717054     0.26300
C969        C  0.24762452  0.92957505  0.02382468    -0.11400
C970        C  0.24999120  0.91517697  0.98956223    -0.25400
C971        C  0.26592965  0.93549187  0.95788266     0.37200
C972        C  0.28028017  0.96960193  0.96102877    -0.27100
F973        F  0.26144579  0.97720226  0.06116793    -0.19200
H974        H  0.23558633  0.91443611  0.04861533     0.16500
F975        F  0.26818113  0.92243658  0.92409103    -0.22900
H976        H  0.29329999  0.98491645  0.93669434     0.18300
C977        C  0.25765080  0.28882854  0.97251272    -0.26900
C978        C  0.27610126  0.29042913  0.00483473     0.06700
C979        C  0.27632395  0.30886613  0.03673374     0.26300
C980        C  0.26111772  0.32765943  0.03491889    -0.11400
C981        C  0.24475205  0.32808667  0.00165738    -0.25400
C982        C  0.24180982  0.30729325  0.97097763     0.37100
C983        C  0.29815042  0.27638082  0.00393144     0.06700
F984        F  0.29235586  0.30970372  0.06927765    -0.19200
H985        H  0.26308703  0.34286034  0.05931530     0.16500
F986        F  0.22585706  0.30671173  0.93850187    -0.22900
H987        H  0.25709613  0.27482927  0.94753706     0.18300
C988        C  0.28750059  0.24411019  0.99128577     0.26300
C989        C  0.30934794  0.23207379  0.99070566    -0.11400
C990        C  0.34204318  0.25189817  0.00293966    -0.25400
C991        C  0.35258852  0.28426736  0.01517349     0.37200
C992        C  0.33096499  0.29625594  0.01532128    -0.27100
F993        F  0.25590427  0.22401494  0.98036406    -0.19200
H994        H  0.30055024  0.20707090  0.98115617     0.16500
F995        F  0.38406657  0.30480734  0.02628043    -0.22900
H996        H  0.34012263  0.32152796  0.02406255     0.18300
loop_ 
_geom_bond_atom_site_label_1 
_geom_bond_atom_site_label_2 
_geom_bond_distance 
_geom_bond_site_symmetry_2 
_ccdc_geom_bond_type 
Zn1           O5   1.946   1_556  S
Zn1           O6   2.002       .  S
Zn1          O10   2.012       .  S
Zn1          O17   1.996       .  S
Zn2           O5   1.970   1_556  S
Zn2           O7   2.026       .  S
Zn2           O9   2.024       .  S
Zn2          O13   2.037       .  S
Zn3           O5   1.958       .  S
Zn3           O8   2.038       .  S
Zn3          O11   2.006       .  S
Zn3          O14   2.025       .  S
Zn4           O5   1.952       .  S
Zn4          O12   2.003       .  S
Zn4          O15   2.000       .  S
Zn4          O16   2.016       .  S
O6           C18   1.273       .  A
O7           C19   1.275   1_556  A
O8           C20   1.275   1_554  A
O9           C18   1.275       .  A
O10          C20   1.273       .  A
O11          C19   1.274       .  A
O12          C21   1.273       .  A
O13          C22   1.275   1_556  A
O14          C21   1.275       .  A
O15          C22   1.272       .  A
O16          C23   1.272       .  A
O17          C23   1.271   1_556  A
C18         C890   1.482       .  S
C19         C961   1.485       .  S
C20         C950   1.482       .  S
C21         C910   1.484       .  S
C22         C990   1.485       .  S
C23         C930   1.481       .  S
Zn24         O28   1.964       .  S
Zn24         O29   2.025       .  S
Zn24         O33   2.023       .  S
Zn24         O40   2.040       .  S
Zn25         O28   1.950       .  S
Zn25         O30   2.005       .  S
Zn25         O32   2.002       .  S
Zn25         O36   2.006       .  S
Zn26         O28   1.956       .  S
Zn26         O31   2.013       .  S
Zn26         O34   2.031       .  S
Zn26         O37   2.003       .  S
Zn27         O28   1.952       .  S
Zn27         O35   2.015       .  S
Zn27         O38   2.005       .  S
Zn27         O39   2.002       .  S
O29          C41   1.274       .  A
O30          C42   1.272       .  A
O31          C43   1.274       .  A
O32          C41   1.272       .  A
O33          C43   1.275       .  A
O34          C42   1.274       .  A
O35          C44   1.273       .  A
O36          C45   1.273       .  A
O37          C44   1.272       .  A
O38          C45   1.272       .  A
O39          C46   1.273       .  A
O40          C46   1.276       .  A
C41         C901   1.480       .  S
C42         C801   1.478       .  S
C43         C870   1.475       .  S
C44         C881   1.480       .  S
C45         C830   1.480       .  S
C46         C850   1.484       .  S
Zn47         O51   1.965   1_554  S
Zn47         O52   2.015       .  S
Zn47         O56   2.024       .  S
Zn47         O63   2.031       .  S
Zn48         O51   1.949   1_554  S
Zn48         O53   2.017       .  S
Zn48         O55   2.013       .  S
Zn48         O59   2.013       .  S
Zn49         O51   1.962       .  S
Zn49         O54   2.028       .  S
Zn49         O57   2.043       .  S
Zn49         O60   2.020       .  S
Zn50         O51   1.956       .  S
Zn50         O58   2.004       .  S
Zn50         O61   2.030       .  S
Zn50         O62   2.008       .  S
O52          C64   1.272       .  A
O53          C65   1.274   1_554  A
O54          C66   1.276       .  A
O55          C64   1.274       .  A
O56          C66   1.276   1_554  A
O57          C65   1.276       .  A
O58          C67   1.272       .  A
O59          C68   1.273   1_554  A
O60          C67   1.275       .  A
O61          C68   1.275       .  A
O62          C69   1.273       .  A
O63          C69   1.276   1_554  A
C64         C781   1.484       .  S
C65         C721   1.490       .  S
C66         C741   1.483       .  S
C67         C770   1.484       .  S
C68         C710   1.483       .  S
C69         C970   1.478       .  S
Zn70         O74   1.949       .  S
Zn70         O75   2.006       .  S
Zn70         O79   2.011       .  S
Zn70         O86   2.012       .  S
Zn71         O74   1.973       .  S
Zn71         O76   2.030       .  S
Zn71         O78   2.025       .  S
Zn71         O82   2.029       .  S
Zn72         O74   1.955       .  S
Zn72         O77   2.020       .  S
Zn72         O80   2.001       .  S
Zn72         O83   2.009       .  S
Zn73         O74   1.955       .  S
Zn73         O81   2.014       .  S
Zn73         O84   2.004       .  S
Zn73         O85   2.029       .  S
O75          C87   1.273       .  A
O76          C88   1.275       .  A
O77          C89   1.273       .  A
O78          C87   1.274       .  A
O79          C89   1.272       .  A
O80          C88   1.274       .  A
O81          C90   1.272       .  A
O82          C91   1.275       .  A
O83          C90   1.272       .  A
O84          C91   1.273       .  A
O85          C92   1.276       .  A
O86          C92   1.273       .  A
C87         C790   1.477       .  S
C88         C681   1.478       .  S
C89         C670   1.484       .  S
C90         C761   1.471       .  S
C91         C841   1.478       .  S
C92         C641   1.487       .  S
Zn93         O97   1.952       .  S
Zn93         O98   2.013       .  S
Zn93        O102   2.006       .  S
Zn93        O109   2.000       .  S
Zn94         O97   1.943   1_556  S
Zn94         O99   1.992       .  S
Zn94        O101   2.004       .  S
Zn94        O105   2.001       .  S
Zn95         O97   1.955       .  S
Zn95        O100   2.011       .  S
Zn95        O103   2.026       .  S
Zn95        O106   2.012       .  S
Zn96         O97   1.966   1_556  S
Zn96        O104   2.040       .  S
Zn96        O107   2.030       .  S
Zn96        O108   2.043       .  S
O98         C110   1.272       .  A
O99         C111   1.271   1_556  A
O100        C112   1.273       .  A
O101        C110   1.272   1_556  A
O102        C112   1.272       .  A
O103        C111   1.273       .  A
O104        C113   1.277   1_556  A
O105        C114   1.272       .  A
O106        C113   1.275       .  A
O107        C114   1.275       .  A
O108        C115   1.278   1_556  A
O109        C115   1.273       .  A
C110        C570   1.481       .  S
C111        C921   1.473       .  S
C112        C630   1.482       .  S
C113        C581   1.483       .  S
C114        C601   1.486       .  S
C115        C750   1.487       .  S
Zn116       O120   1.942       .  S
Zn116       O121   1.992       .  S
Zn116       O125   1.989       .  S
Zn116       O132   1.998       .  S
Zn117       O120   1.970       .  S
Zn117       O122   2.036       .  S
Zn117       O124   2.023       .  S
Zn117       O128   2.026       .  S
Zn118       O120   1.960       .  S
Zn118       O123   2.044       .  S
Zn118       O126   2.018       .  S
Zn118       O129   2.021       .  S
Zn119       O120   1.953       .  S
Zn119       O127   2.016       .  S
Zn119       O130   2.000       .  S
Zn119       O131   2.023       .  S
O121        C133   1.271       .  A
O122        C134   1.277       .  A
O123        C135   1.276       .  A
O124        C133   1.274       .  A
O125        C135   1.272       .  A
O126        C134   1.275       .  A
O127        C136   1.274       .  A
O128        C137   1.275       .  A
O129        C136   1.274       .  A
O130        C137   1.273       .  A
O131        C138   1.272       .  A
O132        C138   1.270       .  A
C133        C621   1.482       .  S
C134        C550   1.483       .  S
C135        C810   1.486       .  S
C136        C610   1.484       .  S
C137        C690   1.481       .  S
C138        C521   1.483       .  S
Zn139       O143   1.978   1_556  S
Zn139       O144   2.037       .  S
Zn139       O148   2.051       .  S
Zn139       O155   2.042       .  S
Zn140       O143   1.943   1_556  S
Zn140       O145   2.009       .  S
Zn140       O147   1.995       .  S
Zn140       O151   1.992       .  S
Zn141       O143   1.947       .  S
Zn141       O146   2.000       .  S
Zn141       O149   2.022       .  S
Zn141       O152   2.008       .  S
Zn142       O143   1.959       .  S
Zn142       O150   2.023       .  S
Zn142       O153   2.046       .  S
Zn142       O154   2.005       .  S
O144        C156   1.276       .  A
O145        C157   1.273       .  A
O146        C158   1.272   1_554  A
O147        C156   1.271       .  A
O148        C158   1.277       .  A
O149        C157   1.274   1_554  A
O150        C159   1.274       .  A
O151        C160   1.269       .  A
O152        C159   1.272       .  A
O153        C160   1.276   1_554  A
O154        C161   1.275       .  A
O155        C161   1.277   1_556  A
C156        C481   1.472       .  S
C157        C450   1.486       .  S
C158        C590   1.490   1_556  S
C159        C501   1.474       .  S
C160        C701   1.490       .  S
C161        C470   1.488       .  S
Zn162       O166   1.955       .  S
Zn162       O167   2.022       .  S
Zn162       O171   2.013       .  S
Zn162       O178   2.020       .  S
Zn163       O166   1.965       .  S
Zn163       O168   2.042       .  S
Zn163       O170   2.015       .  S
Zn163       O174   2.030       .  S
Zn164       O166   1.954       .  S
Zn164       O169   2.017       .  S
Zn164       O172   2.014       .  S
Zn164       O175   2.018       .  S
Zn165       O166   1.951       .  S
Zn165       O173   2.003       .  S
Zn165       O176   1.995       .  S
Zn165       O177   2.018       .  S
O167        C179   1.275       .  A
O168        C180   1.277       .  A
O169        C181   1.273       .  A
O170        C179   1.273       .  A
O171        C181   1.273       .  A
O172        C180   1.275       .  A
O173        C182   1.272       .  A
O174        C183   1.275       .  A
O175        C182   1.273       .  A
O176        C183   1.273       .  A
O177        C184   1.272       .  A
O178        C184   1.275       .  A
C179        C490   1.487       .  S
C180        C541   1.489       .  S
C181        C401   1.472       .  S
C182        C510   1.484       .  S
C183        C421   1.480       .  S
C184        C650   1.488       .  S
Zn185       O189   1.949   1_556  S
Zn185       O190   2.006       .  S
Zn185       O194   2.009       .  S
Zn185       O201   2.001       .  S
Zn186       O189   1.964       .  S
Zn186       O191   2.018       .  S
Zn186       O193   2.047       .  S
Zn186       O197   2.031       .  S
Zn187       O189   1.966   1_556  S
Zn187       O192   2.021       .  S
Zn187       O195   2.024       .  S
Zn187       O198   2.021       .  S
Zn188       O189   1.962       .  S
Zn188       O196   2.021       .  S
Zn188       O199   2.009       .  S
Zn188       O200   2.014       .  S
O190        C202   1.273       .  A
O191        C203   1.275       .  A
O192        C204   1.272       .  A
O193        C202   1.277   1_554  A
O194        C204   1.272       .  A
O195        C203   1.275   1_556  A
O196        C205   1.275       .  A
O197        C206   1.275       .  A
O198        C205   1.275   1_556  A
O199        C206   1.273       .  A
O200        C207   1.272       .  A
O201        C207   1.271   1_556  A
C202        C941   1.487       .  S
C203        C461   1.475       .  S
C204        C361   1.477       .  S
C205        C341   1.480       .  S
C206        C381   1.479       .  S
C207        C561   1.474       .  S
Zn208       O212   1.945       .  S
Zn208       O213   1.987       .  S
Zn208       O217   2.016       .  S
Zn208       O224   1.995       .  S
Zn209       O212   1.977       .  S
Zn209       O214   2.049       .  S
Zn209       O216   2.046       .  S
Zn209       O220   2.043       .  S
Zn210       O212   1.948       .  S
Zn210       O215   2.016       .  S
Zn210       O218   1.998       .  S
Zn210       O221   2.017       .  S
Zn211       O212   1.947       .  S
Zn211       O219   1.999       .  S
Zn211       O222   1.994       .  S
Zn211       O223   2.010       .  S
O213        C225   1.273       .  A
O214        C226   1.279       .  A
O215        C227   1.272       .  A
O216        C225   1.278       .  A
O217        C227   1.273       .  A
O218        C226   1.273       .  A
O219        C228   1.271       .  A
O220        C229   1.276       .  A
O221        C228   1.274       .  A
O222        C229   1.272       .  A
O223        C230   1.272       .  A
O224        C230   1.270       .  A
C225        C430   1.482       .  S
C226        C321   1.483       .  S
C227        C390   1.485       .  S
C228        C530   1.482       .  S
C229        C370   1.486       .  S
C230        C821   1.479       .  S
Zn231       O235   1.948   1_554  S
Zn231       O236   2.004       .  S
Zn231       O240   2.016       .  S
Zn231       O247   2.000       .  S
Zn232       O235   1.951   1_554  S
Zn232       O237   2.026       .  S
Zn232       O239   2.027       .  S
Zn232       O243   1.995       .  S
Zn233       O235   1.950       .  S
Zn233       O238   2.003       .  S
Zn233       O241   2.021       .  S
Zn233       O244   1.991       .  S
Zn234       O235   1.982       .  S
Zn234       O242   2.049       .  S
Zn234       O245   2.052       .  S
Zn234       O246   2.054       .  S
O236        C248   1.271       .  A
O237        C249   1.275   1_554  A
O238        C250   1.271       .  A
O239        C248   1.274       .  A
O240        C250   1.273   1_554  A
O241        C249   1.273       .  A
O242        C251   1.277       .  A
O243        C252   1.273   1_554  A
O244        C251   1.272       .  A
O245        C252   1.279       .  A
O246        C253   1.278       .  A
O247        C253   1.274   1_554  A
C248        C301   1.483       .  S
C249        C730   1.491       .  S
C250        C441   1.471       .  S
C251        C281   1.487       .  S
C252        C350   1.486       .  S
C253        C981   1.482   1_556  S
Zn254       O258   1.951       .  S
Zn254       O259   2.009       .  S
Zn254       O263   2.017       .  S
Zn254       O270   2.001       .  S
Zn255       O258   1.969       .  S
Zn255       O260   2.039       .  S
Zn255       O262   2.024       .  S
Zn255       O266   2.029       .  S
Zn256       O258   1.951       .  S
Zn256       O261   2.018       .  S
Zn256       O264   2.004       .  S
Zn256       O267   2.017       .  S
Zn257       O258   1.959       .  S
Zn257       O265   2.025       .  S
Zn257       O268   2.020       .  S
Zn257       O269   2.029       .  S
O259        C271   1.273       .  A
O260        C272   1.277       .  A
O261        C273   1.273       .  A
O262        C271   1.273       .  A
O263        C273   1.272       .  A
O264        C272   1.274       .  A
O265        C274   1.275       .  A
O266        C275   1.275       .  A
O267        C274   1.274       .  A
O268        C275   1.275       .  A
O269        C276   1.275       .  A
O270        C276   1.273       .  A
C271        C290   1.476       .  S
C272        C330   1.483       .  S
C273        C661   1.487       .  S
C274        C310   1.480       .  S
C275        C861   1.489       .  S
C276        C410   1.485       .  S
C277        C278   1.400       .  A
C277        C282   1.393       .  A
C277        H287   1.085       .  S
C278        C283   1.481       .  S
C278        C279   1.406       .  A
C279        C280   1.404       .  A
C279        F284   1.357       .  S
C280        C281   1.408       .  A
C280        H285   1.084       .  S
C281        C282   1.412       .  A
C282        F286   1.358       .  S
C283        C288   1.406       .  A
C283        C292   1.404       .  A
C288        C289   1.395       .  A
C288        F293   1.358       .  S
C289        C290   1.402       .  A
C289        H294   1.085       .  S
C290        C291   1.408       .  A
C291        C292   1.402       .  A
C291        F295   1.357       .  S
C292        H296   1.085       .  S
C297        C298   1.404       .  A
C297        C302   1.398       .  A
C297        H307   1.084       .  S
C298        C303   1.487       .  S
C298        C299   1.408       .  A
C299        C300   1.399       .  A
C299        F304   1.357       .  S
C300        C301   1.405       .  A
C300        H305   1.084       .  S
C301        C302   1.410       .  A
C302        F306   1.358       .  S
C303        C308   1.408       .  A
C303        C312   1.405       .  A
C308        C309   1.399       .  A
C308        F313   1.357       .  S
C309        C310   1.404       .  A
C309        H314   1.084       .  S
C310        C311   1.408       .  A
C311        C312   1.399       .  A
C311        F315   1.358       .  S
C312        H316   1.084       .  S
C317        C318   1.403       .  A
C317        C322   1.396       .  A
C317        H327   1.084       .  S
C318        C323   1.484   1_655  S
C318        C319   1.407       .  A
C319        C320   1.402       .  A
C319        F324   1.357       .  S
C320        C321   1.406       .  A
C320        H325   1.084       .  S
C321        C322   1.410       .  A
C322        F326   1.358       .  S
C323        C328   1.407       .  A
C323        C332   1.403       .  A
C328        C329   1.403       .  A
C328        F333   1.357       .  S
C329        C330   1.406       .  A
C329        H334   1.083       .  S
C330        C331   1.409       .  A
C331        C332   1.395       .  A
C331        F335   1.358       .  S
C332        H336   1.084       .  S
C337        C338   1.406       .  A
C337        C342   1.399       .  A
C337        H347   1.084       .  S
C338        C343   1.485   1_655  S
C338        C339   1.406   1_554  A
C339        C340   1.398       .  A
C339        F344   1.357       .  S
C340        C341   1.405   1_556  A
C340        H345   1.084       .  S
C341        C342   1.407       .  A
C342        F346   1.358       .  S
C343        C348   1.405       .  A
C343        C352   1.406   1_554  A
C348        C349   1.395       .  A
C348        F353   1.358       .  S
C349        C350   1.408   1_554  A
C349        H354   1.084       .  S
C350        C351   1.409       .  A
C351        C352   1.402       .  A
C351        F355   1.357       .  S
C352        H356   1.084       .  S
C357        C358   1.405       .  A
C357        C362   1.401       .  A
C357        H367   1.084       .  S
C358        C363   1.483       .  S
C358        C359   1.407       .  A
C359        C360   1.395       .  A
C359        F364   1.358       .  S
C360        C361   1.403       .  A
C360        H365   1.084       .  S
C361        C362   1.408       .  A
C362        F366   1.357       .  S
C363        C368   1.407       .  A
C363        C372   1.401       .  A
C368        C369   1.404       .  A
C368        F373   1.357       .  S
C369        C370   1.408       .  A
C369        H374   1.084       .  S
C370        C371   1.410       .  A
C371        C372   1.393       .  A
C371        F375   1.358       .  S
C372        H376   1.084       .  S
C377        C378   1.406       .  A
C377        C382   1.399       .  A
C377        H387   1.084       .  S
C378        C383   1.487       .  S
C378        C379   1.408       .  A
C379        C380   1.398       .  A
C379        F384   1.358       .  S
C380        C381   1.405       .  A
C380        H385   1.085       .  S
C381        C382   1.406       .  A
C382        F386   1.357       .  S
C383        C388   1.407       .  A
C383        C392   1.405       .  A
C388        C389   1.399       .  A
C388        F393   1.357       .  S
C389        C390   1.407       .  A
C389        H394   1.084       .  S
C390        C391   1.409       .  A
C391        C392   1.397       .  A
C391        F395   1.357       .  S
C392        H396   1.084       .  S
C397        C398   1.406       .  A
C397        C402   1.397       .  A
C397        H407   1.084       .  S
C398        C403   1.483       .  S
C398        C399   1.408       .  A
C399        C400   1.398       .  A
C399        F404   1.357       .  S
C400        C401   1.404       .  A
C400        H405   1.084       .  S
C401        C402   1.404       .  A
C402        F406   1.357       .  S
C403        C408   1.407       .  A
C403        C412   1.402       .  A
C408        C409   1.401       .  A
C408        F413   1.357       .  S
C409        C410   1.408       .  A
C409        H414   1.083       .  S
C410        C411   1.411       .  A
C411        C412   1.394       .  A
C411        F415   1.358       .  S
C412        H416   1.083       .  S
C417        C418   1.405       .  A
C417        C422   1.401       .  A
C417        H427   1.084       .  S
C418        C423   1.483   1_565  S
C418        C419   1.407       .  A
C419        C420   1.394       .  A
C419        F424   1.358       .  S
C420        C421   1.405       .  A
C420        H425   1.084       .  S
C421        C422   1.409       .  A
C422        F426   1.357       .  S
C423        C428   1.406       .  A
C423        C432   1.406       .  A
C428        C429   1.393       .  A
C428        F433   1.358       .  S
C429        C430   1.407       .  A
C429        H434   1.083       .  S
C430        C431   1.408       .  A
C431        C432   1.402       .  A
C431        F435   1.357       .  S
C432        H436   1.083       .  S
C437        C438   1.406   1_554  A
C437        C442   1.397       .  A
C437        H447   1.084       .  S
C438        C443   1.487       .  S
C438        C439   1.410       .  A
C439        C440   1.398       .  A
C439        F444   1.357       .  S
C440        C441   1.402       .  A
C440        H445   1.085       .  S
C441        C442   1.405   1_556  A
C442        F446   1.358       .  S
C443        C448   1.408       .  A
C443        C452   1.405   1_556  A
C448        C449   1.396       .  A
C448        F453   1.358       .  S
C449        C450   1.406       .  A
C449        H454   1.083       .  S
C450        C451   1.410   1_556  A
C451        C452   1.399       .  A
C451        F455   1.357       .  S
C452        H456   1.083       .  S
C457        C458   1.406   1_556  A
C457        C462   1.402       .  A
C457        H467   1.079       .  S
C458        C463   1.485   1_545  S
C458        C459   1.407       .  A
C459        C460   1.396       .  A
C459        F464   1.358       .  S
C460        C461   1.402       .  A
C460        H465   1.079       .  S
C461        C462   1.407   1_554  A
C462        F466   1.358       .  S
C463        C468   1.406       .  A
C463        C472   1.406   1_554  A
C468        C469   1.392       .  A
C468        F473   1.358       .  S
C469        C470   1.406       .  A
C469        H474   1.085       .  S
C470        C471   1.412   1_554  A
C471        C472   1.404       .  A
C471        F475   1.357       .  S
C472        H476   1.085       .  S
C477        C478   1.405       .  A
C477        C482   1.398       .  A
C477        H487   1.083       .  S
C478        C483   1.488       .  S
C478        C479   1.411       .  A
C479        C480   1.399       .  A
C479        F484   1.357       .  S
C480        C481   1.401       .  A
C480        H485   1.083       .  S
C481        C482   1.406       .  A
C482        F486   1.358       .  S
C483        C488   1.409       .  A
C483        C492   1.404       .  A
C488        C489   1.399       .  A
C488        F493   1.358       .  S
C489        C490   1.407       .  A
C489        H494   1.083       .  S
C490        C491   1.411       .  A
C491        C492   1.397       .  A
C491        F495   1.357       .  S
C492        H496   1.083       .  S
C497        C498   1.406       .  A
C497        C502   1.397       .  A
C497        H507   1.084       .  S
C498        C503   1.485       .  S
C498        C499   1.408       .  A
C499        C500   1.399       .  A
C499        F504   1.358       .  S
C500        C501   1.404       .  A
C500        H505   1.084       .  S
C501        C502   1.404       .  A
C502        F506   1.357       .  S
C503        C508   1.406       .  A
C503        C512   1.405       .  A
C508        C509   1.395       .  A
C508        F513   1.357       .  S
C509        C510   1.406       .  A
C509        H514   1.084       .  S
C510        C511   1.410       .  A
C511        C512   1.399       .  A
C511        F515   1.357       .  S
C512        H516   1.084       .  S
C517        C518   1.403       .  A
C517        C522   1.399       .  A
C517        H527   1.083       .  S
C518        C523   1.479       .  S
C518        C519   1.405       .  A
C519        C520   1.395       .  A
C519        F524   1.358       .  S
C520        C521   1.407       .  A
C520        H525   1.083       .  S
C521        C522   1.410       .  A
C522        F526   1.357       .  S
C523        C528   1.405       .  A
C523        C532   1.402       .  A
C528        C529   1.398       .  A
C528        F533   1.357       .  S
C529        C530   1.407       .  A
C529        H534   1.083       .  S
C530        C531   1.411       .  A
C531        C532   1.395       .  A
C531        F535   1.358       .  S
C532        H536   1.083       .  S
C537        C538   1.406       .  A
C537        C542   1.404       .  A
C537        H547   1.083       .  S
C538        C543   1.486       .  S
C538        C539   1.405       .  A
C539        C540   1.396       .  A
C539        F544   1.358       .  S
C540        C541   1.407       .  A
C540        H545   1.083       .  S
C541        C542   1.411       .  A
C542        F546   1.357       .  S
C543        C548   1.408       .  A
C543        C552   1.403       .  A
C548        C549   1.401       .  A
C548        F553   1.357       .  S
C549        C550   1.405       .  A
C549        H554   1.083       .  S
C550        C551   1.409       .  A
C551        C552   1.399       .  A
C551        F555   1.358       .  S
C552        H556   1.083       .  S
C557        C558   1.403   1_556  A
C557        C562   1.394       .  A
C557        H567   1.084       .  S
C558        C563   1.477       .  S
C558        C559   1.406       .  A
C559        C560   1.399       .  A
C559        F564   1.358       .  S
C560        C561   1.405       .  A
C560        H565   1.084       .  S
C561        C562   1.406   1_554  A
C562        F566   1.358       .  S
C563        C568   1.405       .  A
C563        C572   1.402   1_554  A
C568        C569   1.399       .  A
C568        F573   1.357       .  S
C569        C570   1.407       .  A
C569        H574   1.084       .  S
C570        C571   1.410   1_554  A
C571        C572   1.394       .  A
C571        F575   1.358       .  S
C572        H576   1.084       .  S
C577        C578   1.406   1_556  A
C577        C582   1.403       .  A
C577        H587   1.084       .  S
C578        C583   1.489       .  S
C578        C579   1.408       .  A
C579        C580   1.397       .  A
C579        F584   1.358       .  S
C580        C581   1.404       .  A
C580        H585   1.084       .  S
C581        C582   1.409   1_554  A
C582        F586   1.357       .  S
C583        C588   1.408   1_554  A
C583        C592   1.402       .  A
C588        C589   1.406       .  A
C588        F593   1.357       .  S
C589        C590   1.409   1_556  A
C589        H594   1.083       .  S
C590        C591   1.411       .  A
C591        C592   1.394       .  A
C591        F595   1.358       .  S
C592        H596   1.084       .  S
C597        C598   1.399       .  A
C597        C602   1.397       .  A
C597        H607   1.084       .  S
C598        C603   1.472       .  S
C598        C599   1.402       .  A
C599        C600   1.399       .  A
C599        F604   1.357       .  S
C600        C601   1.408       .  A
C600        H605   1.084       .  S
C601        C602   1.413       .  A
C602        F606   1.357       .  S
C603        C608   1.401       .  A
C603        C612   1.400       .  A
C608        C609   1.398       .  A
C608        F613   1.357       .  S
C609        C610   1.408       .  A
C609        H614   1.083       .  S
C610        C611   1.411       .  A
C611        C612   1.399       .  A
C611        F615   1.357       .  S
C612        H616   1.084       .  S
C617        C618   1.400       .  A
C617        C622   1.397       .  A
C617        H627   1.084       .  S
C618        C623   1.469       .  S
C618        C619   1.400       .  A
C619        C620   1.396       .  A
C619        F624   1.358       .  S
C620        C621   1.409       .  A
C620        H625   1.083       .  S
C621        C622   1.410       .  A
C622        F626   1.357       .  S
C623        C628   1.401       .  A
C623        C632   1.400       .  A
C628        C629   1.394       .  A
C628        F633   1.357       .  S
C629        C630   1.407       .  A
C629        H634   1.083       .  S
C630        C631   1.413       .  A
C631        C632   1.398       .  A
C631        F635   1.358       .  S
C632        H636   1.084       .  S
C637        C638   1.401       .  A
C637        C642   1.400       .  A
C637        H647   1.084       .  S
C638        C643   1.477       .  S
C638        C639   1.403       .  A
C639        C640   1.398       .  A
C639        F644   1.357       .  S
C640        C641   1.407       .  A
C640        H645   1.084       .  S
C641        C642   1.413       .  A
C642        F646   1.357       .  S
C643        C648   1.402       .  A
C643        C652   1.402       .  A
C648        C649   1.395       .  A
C648        F653   1.357       .  S
C649        C650   1.407       .  A
C649        H654   1.083       .  S
C650        C651   1.414       .  A
C651        C652   1.403       .  A
C651        F655   1.358       .  S
C652        H656   1.083       .  S
C657        C658   1.403       .  A
C657        C662   1.399       .  A
C657        H667   1.084       .  S
C658        C663   1.480       .  S
C658        C659   1.404       .  A
C659        C660   1.398       .  A
C659        F664   1.357       .  S
C660        C661   1.408       .  A
C660        H665   1.083       .  S
C661        C662   1.412       .  A
C662        F666   1.357       .  S
C663        C668   1.405       .  A
C663        C672   1.402       .  A
C668        C669   1.400       .  A
C668        F673   1.357       .  S
C669        C670   1.408       .  A
C669        H674   1.084       .  S
C670        C671   1.410       .  A
C671        C672   1.397       .  A
C671        F675   1.357       .  S
C672        H676   1.084       .  S
C677        C678   1.406       .  A
C677        C682   1.402       .  A
C677        H687   1.083       .  S
C678        C683   1.485   1_455  S
C678        C679   1.407       .  A
C679        C680   1.392       .  A
C679        F684   1.358       .  S
C680        C681   1.403       .  A
C680        H685   1.084       .  S
C681        C682   1.409       .  A
C682        F686   1.357       .  S
C683        C688   1.408       .  A
C683        C692   1.404       .  A
C688        C689   1.402       .  A
C688        F693   1.357       .  S
C689        C690   1.407       .  A
C689        H694   1.083       .  S
C690        C691   1.408       .  A
C691        C692   1.391       .  A
C691        F695   1.358       .  S
C692        H696   1.084       .  S
C697        C698   1.402       .  A
C697        C702   1.396       .  A
C697        H707   1.084       .  S
C698        C703   1.487       .  S
C698        C699   1.408   1_556  A
C699        C700   1.403       .  A
C699        F704   1.357       .  S
C700        C701   1.407   1_554  A
C700        H705   1.083       .  S
C701        C702   1.413       .  A
C702        F706   1.358       .  S
C703        C708   1.409       .  A
C703        C712   1.404   1_556  A
C708        C709   1.401       .  A
C708        F713   1.358       .  S
C709        C710   1.406       .  A
C709        H714   1.084       .  S
C710        C711   1.408   1_556  A
C711        C712   1.398       .  A
C711        F715   1.357       .  S
C712        H716   1.083       .  S
C717        C718   1.405       .  A
C717        C722   1.404       .  A
C717        H727   1.083       .  S
C718        C723   1.488       .  S
C718        C719   1.406   1_556  A
C719        C720   1.398       .  A
C719        F724   1.358       .  S
C720        C721   1.407   1_554  A
C720        H725   1.083       .  S
C721        C722   1.411       .  A
C722        F726   1.357       .  S
C723        C728   1.406   1_556  A
C723        C732   1.405       .  A
C728        C729   1.399       .  A
C728        F733   1.357       .  S
C729        C730   1.407   1_554  A
C729        H734   1.081       .  S
C730        C731   1.413       .  A
C731        C732   1.402       .  A
C731        F735   1.358       .  S
C732        H736   1.082       .  S
C737        C738   1.403       .  A
C737        C742   1.400       .  A
C737        H747   1.084       .  S
C738        C743   1.479   1_456  S
C738        C739   1.404   1_556  A
C739        C740   1.399       .  A
C739        F744   1.358       .  S
C740        C741   1.407   1_554  A
C740        H745   1.084       .  S
C741        C742   1.409       .  A
C742        F746   1.357       .  S
C743        C748   1.404   1_554  A
C743        C752   1.400       .  A
C748        C749   1.401       .  A
C748        F753   1.357       .  S
C749        C750   1.408   1_556  A
C749        H754   1.083       .  S
C750        C751   1.413       .  A
C751        C752   1.397       .  A
C751        F755   1.358       .  S
C752        H756   1.083       .  S
C757        C758   1.407       .  A
C757        C762   1.397       .  A
C757        H767   1.085       .  S
C758        C763   1.486       .  S
C758        C759   1.409       .  A
C759        C760   1.397       .  A
C759        F764   1.357       .  S
C760        C761   1.402       .  A
C760        H765   1.085       .  S
C761        C762   1.404       .  A
C762        F766   1.358       .  S
C763        C768   1.408       .  A
C763        C772   1.404       .  A
C768        C769   1.397       .  A
C768        F773   1.357       .  S
C769        C770   1.406       .  A
C769        H774   1.085       .  S
C770        C771   1.411       .  A
C771        C772   1.397       .  A
C771        F775   1.357       .  S
C772        H776   1.085       .  S
C777        C778   1.404       .  A
C777        C782   1.401       .  A
C777        H787   1.084       .  S
C778        C783   1.483       .  S
C778        C779   1.406       .  A
C779        C780   1.394       .  A
C779        F784   1.357       .  S
C780        C781   1.405       .  A
C780        H785   1.084       .  S
C781        C782   1.412       .  A
C782        F786   1.358       .  S
C783        C788   1.408       .  A
C783        C792   1.403       .  A
C788        C789   1.401       .  A
C788        F793   1.357       .  S
C789        C790   1.406       .  A
C789        H794   1.084       .  S
C790        C791   1.406       .  A
C791        C792   1.394       .  A
C791        F795   1.358       .  S
C792        H796   1.085       .  S
C797        C798   1.405       .  A
C797        C802   1.396       .  A
C797        H807   1.084       .  S
C798        C803   1.487       .  S
C798        C799   1.408       .  A
C799        C800   1.401       .  A
C799        F804   1.357       .  S
C800        C801   1.405       .  A
C800        H805   1.084       .  S
C801        C802   1.406       .  A
C802        F806   1.358       .  S
C803        C808   1.406       .  A
C803        C812   1.407       .  A
C808        C809   1.392       .  A
C808        F813   1.358       .  S
C809        C810   1.407       .  A
C809        H814   1.083       .  S
C810        C811   1.410       .  A
C811        C812   1.404       .  A
C811        F815   1.357       .  S
C812        H816   1.083       .  S
C817        C818   1.402       .  A
C817        C822   1.394       .  A
C817        H827   1.084       .  S
C818        C823   1.476       .  S
C818        C819   1.405       .  A
C819        C820   1.396       .  A
C819        F824   1.357       .  S
C820        C821   1.406       .  A
C820        H825   1.084       .  S
C821        C822   1.410       .  A
C822        F826   1.358       .  S
C823        C828   1.405       .  A
C823        C832   1.402       .  A
C828        C829   1.394       .  A
C828        F833   1.358       .  S
C829        C830   1.406       .  A
C829        H834   1.084       .  S
C830        C831   1.411       .  A
C831        C832   1.397       .  A
C831        F835   1.357       .  S
C832        H836   1.084       .  S
C837        C838   1.405       .  A
C837        C842   1.401       .  A
C837        H847   1.083       .  S
C838        C843   1.485   1_565  S
C838        C839   1.407       .  A
C839        C840   1.395       .  A
C839        F844   1.358       .  S
C840        C841   1.404       .  A
C840        H845   1.084       .  S
C841        C842   1.407       .  A
C842        F846   1.357       .  S
C843        C848   1.406       .  A
C843        C852   1.406       .  A
C848        C849   1.394       .  A
C848        F853   1.358       .  S
C849        C850   1.405       .  A
C849        H854   1.083       .  S
C850        C851   1.409       .  A
C851        C852   1.403       .  A
C851        F855   1.357       .  S
C852        H856   1.083       .  S
C857        C858   1.403       .  A
C857        C862   1.402       .  A
C857        H867   1.083       .  S
C858        C863   1.482       .  S
C858        C859   1.405       .  A
C859        C860   1.397       .  A
C859        F864   1.358       .  S
C860        C861   1.407       .  A
C860        H865   1.083       .  S
C861        C862   1.412       .  A
C862        F866   1.357       .  S
C863        C868   1.407       .  A
C863        C872   1.404       .  A
C868        C869   1.399       .  A
C868        F873   1.357       .  S
C869        C870   1.405       .  A
C869        H874   1.083       .  S
C870        C871   1.406       .  A
C871        C872   1.398       .  A
C871        F875   1.358       .  S
C872        H876   1.083       .  S
C877        C878   1.402       .  A
C877        C882   1.396       .  A
C877        H887   1.084       .  S
C878        C883   1.478       .  S
C878        C879   1.405       .  A
C879        C880   1.398       .  A
C879        F884   1.358       .  S
C880        C881   1.406       .  A
C880        H885   1.083       .  S
C881        C882   1.410       .  A
C882        F886   1.358       .  S
C883        C888   1.404       .  A
C883        C892   1.403       .  A
C888        C889   1.395       .  A
C888        F893   1.358       .  S
C889        C890   1.407       .  A
C889        H894   1.083       .  S
C890        C891   1.410       .  A
C891        C892   1.398       .  A
C891        F895   1.357       .  S
C892        H896   1.083       .  S
C897        C898   1.401       .  A
C897        C902   1.396       .  A
C897        H907   1.084       .  S
C898        C903   1.476       .  S
C898        C899   1.404       .  A
C899        C900   1.399       .  A
C899        F904   1.357       .  S
C900        C901   1.406       .  A
C900        H905   1.083       .  S
C901        C902   1.410       .  A
C902        F906   1.358       .  S
C903        C908   1.403       .  A
C903        C912   1.402       .  A
C908        C909   1.397       .  A
C908        F913   1.358       .  S
C909        C910   1.409       .  A
C909        H914   1.084       .  S
C910        C911   1.410       .  A
C911        C912   1.398       .  A
C911        F915   1.357       .  S
C912        H916   1.085       .  S
C917        C918   1.403   1_556  A
C917        C922   1.393       .  A
C917        H927   1.084       .  S
C918        C923   1.478       .  S
C918        C919   1.407       .  A
C919        C920   1.400       .  A
C919        F924   1.357       .  S
C920        C921   1.405       .  A
C920        H925   1.084       .  S
C921        C922   1.406   1_554  A
C922        F926   1.358       .  S
C923        C928   1.405       .  A
C923        C932   1.402   1_554  A
C928        C929   1.400       .  A
C928        F933   1.357       .  S
C929        C930   1.408       .  A
C929        H934   1.083       .  S
C930        C931   1.409   1_554  A
C931        C932   1.392       .  A
C931        F935   1.358       .  S
C932        H936   1.083       .  S
C937        C938   1.403       .  A
C937        C942   1.397       .  A
C937        H947   1.084       .  S
C938        C943   1.485       .  S
C938        C939   1.407   1_556  A
C939        C940   1.403       .  A
C939        F944   1.357       .  S
C940        C941   1.407   1_554  A
C940        H945   1.083       .  S
C941        C942   1.410       .  A
C942        F946   1.358       .  S
C943        C948   1.407       .  A
C943        C952   1.405   1_556  A
C948        C949   1.396       .  A
C948        F953   1.358       .  S
C949        C950   1.404       .  A
C949        H954   1.084       .  S
C950        C951   1.409   1_556  A
C951        C952   1.404       .  A
C951        F955   1.357       .  S
C952        H956   1.084       .  S
C957        C958   1.402   1_556  A
C957        C962   1.400       .  A
C957        H967   1.084       .  S
C958        C963   1.476   1_544  S
C958        C959   1.403       .  A
C959        C960   1.395       .  A
C959        F964   1.358       .  S
C960        C961   1.408       .  A
C960        H965   1.083       .  S
C961        C962   1.411   1_554  A
C962        F966   1.357       .  S
C963        C968   1.405   1_556  A
C963        C972   1.402       .  A
C968        C969   1.400       .  A
C968        F973   1.357       .  S
C969        C970   1.405   1_554  A
C969        H974   1.084       .  S
C970        C971   1.408       .  A
C971        C972   1.397       .  A
C971        F975   1.358       .  S
C972        H976   1.084       .  S
C977        C978   1.407   1_556  A
C977        C982   1.405       .  A
C977        H987   1.084       .  S
C978        C983   1.488       .  S
C978        C979   1.407       .  A
C979        C980   1.394       .  A
C979        F984   1.358       .  S
C980        C981   1.404       .  A
C980        H985   1.085       .  S
C981        C982   1.408   1_554  A
C982        F986   1.357       .  S
C983        C988   1.408   1_554  A
C983        C992   1.404       .  A
C988        C989   1.404       .  A
C988        F993   1.357       .  S
C989        C990   1.408   1_556  A
C989        H994   1.084       .  S
C990        C991   1.409       .  A
C991        C992   1.393       .  A
C991        F995   1.358       .  S
C992        H996   1.084       .  S
