geometry optimzed in LAMMPS
_audit_creation_date              2020-12-01 
_audit_creation_method            'lammps2cif' 
_symmetry_space_group_name_H-M    'P1' 
_symmetry_Int_Tables_number       1 
_symmetry_cell_setting            triclinic 
loop_ 
_symmetry_equiv_pos_as_xyz 
  x,y,z 
_cell_length_a                    59.84473673 
_cell_length_b                    58.03527494524388 
_cell_length_c                    27.234453812338213 
_cell_angle_alpha                 85.1020416046271 
_cell_angle_beta                  104.80109092194148 
_cell_angle_gamma                 124.19719165448123 
loop_ 
_atom_site_label 
_atom_site_type_symbol 
_atom_site_fract_x 
_atom_site_fract_y 
_atom_site_fract_z 
_atom_site_charge 
N1          N  0.57036739  0.56574340  0.29583037    -0.36200
N2          N  0.58993356  0.54020917  0.37814815    -0.56700
N3          N  0.57625710  0.56174669  0.44911225    -0.36200
N4          N  0.55991003  0.59034563  0.36841680    -0.56700
C5          C  0.57986691  0.55548680  0.27000601     0.27400
C6          C  0.56518697  0.58279741  0.26542390     0.27400
C7          C  0.58981660  0.55216205  0.48228761     0.27400
C8          C  0.57227651  0.57680044  0.47667614     0.27400
C9          C  0.59001278  0.52817342  0.33796908     0.36000
C10         C  0.59469230  0.52744163  0.41954012     0.36000
C11         C  0.54862238  0.59710948  0.32470260     0.36000
C12         C  0.55007513  0.59332636  0.40527913     0.36000
C13         C  0.58051472  0.56594326  0.22227077    -0.21400
C14         C  0.57128349  0.58314910  0.21938103    -0.21400
C15         C  0.59447138  0.56126415  0.53159813    -0.21400
C16         C  0.58332533  0.57675836  0.52804970    -0.21400
C17         C  0.59571419  0.50823694  0.35436430    -0.22500
C18         C  0.59857997  0.50773800  0.40592575    -0.22500
C19         C  0.53241231  0.60543682  0.33427962    -0.22500
C20         C  0.53307452  0.60275047  0.38508545    -0.22500
C21         C  0.58617866  0.53553017  0.28693281    -0.17800
C22         C  0.55264889  0.59588090  0.27614813    -0.17800
C23         C  0.55658345  0.58825177  0.45718113    -0.17800
C24         C  0.59617073  0.53367483  0.46974253    -0.17800
H25         H  0.58649646  0.56127660  0.19215230     0.15100
H26         H  0.56870745  0.59408107  0.18649133     0.15100
H27         H  0.60432197  0.55670324  0.56661152     0.15100
H28         H  0.58291049  0.58645256  0.55974731     0.15100
H29         H  0.59772550  0.49537022  0.33170530     0.13300
H30         H  0.60302548  0.49439484  0.43054423     0.13300
H31         H  0.52085560  0.61224917  0.30735705     0.13300
H32         H  0.52217150  0.60718390  0.40478511     0.13300
H33         H  0.56449226  0.55869915  0.32946424     0.26600
H34         H  0.56670371  0.55521770  0.41093562     0.26600
N35         N  0.97239998  0.59138520  0.49117058    -0.03000
C36         C  0.94425179  0.57381374  0.48170522    -0.00400
C37         C  0.93193735  0.57465074  0.43180938    -0.23300
C38         C  0.95316394  0.59344425  0.40983201    -0.23500
C39         C  0.97776025  0.60345319  0.44706194    -0.00500
H40         H  0.90998099  0.56160869  0.41261133     0.13200
H41         H  0.95099449  0.59752861  0.36995185     0.13300
N42         N  0.61899214  0.47687511  0.13912187    -0.03000
C43         C  0.63007967  0.46164624  0.14529970    -0.00400
C44         C  0.62927616  0.45047984  0.19221288    -0.23300
C45         C  0.61723051  0.45918503  0.21581076    -0.23500
C46         C  0.61135756  0.47549907  0.18252523    -0.00500
H47         H  0.63785088  0.43853796  0.20848624     0.13200
H48         H  0.61461509  0.45547252  0.25420078     0.13300
N49         N  0.80742323  0.46249365  0.04641095    -0.26800
N50         N  0.81142498  0.44220429  0.04957985    -0.34700
C51         C  0.83879405  0.45342560  0.05609415     0.01500
C52         C  0.85273930  0.48229537  0.05549698     0.07500
C53         C  0.83201842  0.48710603  0.05018053    -0.05600
H54         H  0.84740782  0.44113273  0.05904364     0.08200
H55         H  0.83431563  0.50698152  0.04571585     0.09400
Cu56       Cu  0.77862890  0.40049102  0.03341012     0.44200
Cu57       Cu  0.76843002  0.45560995  0.03336614     0.42000
Cu58       Cu  0.70844708  0.38362685  0.01400321     0.43900
N59         N  0.74513159  0.36469413  0.49922718    -0.34200
N60         N  0.71942838  0.35808741  0.49222015    -0.28500
C61         C  0.70167980  0.33438396  0.46161852    -0.04600
C62         C  0.71695977  0.32605045  0.44732064     0.07600
C63         C  0.74437438  0.34560653  0.47284188     0.01400
H64         H  0.67945186  0.32488655  0.44870023     0.09100
H65         H  0.76274965  0.34728137  0.46879414     0.08200
N66         N  0.70711725  0.41726744  0.02924857    -0.35700
N67         N  0.72867955  0.44353824  0.03349540    -0.27900
C68         C  0.72152302  0.46020165  0.04505603    -0.03100
C69         C  0.69433096  0.44365802  0.04993101     0.05500
C70         C  0.68575313  0.41654858  0.03866909     0.03600
H71         H  0.73556436  0.48266110  0.05085814     0.08700
H72         H  0.66589947  0.39753987  0.03990102     0.07500
N73         N  0.68833857  0.23464372  0.26183372    -0.03000
C74         C  0.70019437  0.26163527  0.27670687    -0.00400
C75         C  0.71166341  0.27876622  0.23934654    -0.23300
C76         C  0.70704759  0.26169509  0.20052729    -0.23500
C77         C  0.69281181  0.23476775  0.21557016    -0.00500
H78         H  0.72196073  0.30119518  0.24004763     0.13200
H79         H  0.71267374  0.26809692  0.16466040     0.13300
N80         N  0.62182554  0.09380040  0.89701949    -0.36200
N81         N  0.64116364  0.13629217  0.97686358    -0.56700
N82         N  0.62013359  0.09305041  0.04819885    -0.36200
N83         N  0.60411025  0.05109177  0.97029429    -0.56700
C84         C  0.63432795  0.11694035  0.87137915     0.27400
C85         C  0.61571773  0.07201915  0.86863830     0.27400
C86         C  0.63422382  0.11602480  0.08075182     0.27400
C87         C  0.61320228  0.07078838  0.07655456     0.27400
C88         C  0.64693125  0.15281914  0.93752679     0.36000
C89         C  0.64730321  0.15256743  0.01744659     0.36000
C90         C  0.59521099  0.03447820  0.92815058     0.36000
C91         C  0.59318736  0.03394843  0.00665700     0.36000
C92         C  0.63472323  0.10773233  0.32583723    -0.21400
C93         C  0.62325122  0.07950200  0.32483828    -0.21400
C94         C  0.63559922  0.10814668  0.13041227    -0.21400
C95         C  0.62221152  0.07962885  0.12775812    -0.21400
C96         C  0.65716889  0.17985642  0.95355347    -0.22500
C97         C  0.65731473  0.17966070  0.00397099    -0.22500
C98         C  0.57892138  0.00666846  0.93811676    -0.22500
C99         C  0.57764289  0.00631349  0.98770535    -0.22500
C100        C  0.64468534  0.14451456  0.88802928    -0.17800
C101        C  0.60187798  0.04373233  0.88086894    -0.17800
C102        C  0.59832350  0.04260196  0.05768654    -0.17800
C103        C  0.64539475  0.14388443  0.06726598    -0.17800
H104        H  0.64297516  0.12110399  0.29604123     0.15100
H105        H  0.62097835  0.06705376  0.29418548     0.15100
H106        H  0.64522637  0.12153562  0.16509203     0.15100
H107        H  0.61958783  0.06691474  0.16003160     0.15100
H108        H  0.66425842  0.19804361  0.93156917     0.13300
H109        H  0.66433264  0.19755794  0.02808243     0.13300
H110        H  0.56895181  0.98847888  0.91228486     0.13300
H111        H  0.56666681  0.98775132  0.00756689     0.13300
H112        H  0.61581782  0.09262244  0.92998820     0.26600
H113        H  0.61333123  0.09221763  0.00901758     0.26600
N114        N  0.11061780  0.65959674  0.20762390    -0.36200
N115        N  0.07183782  0.63963019  0.27110444    -0.56700
N116        N  0.11852296  0.66531695  0.36248753    -0.36200
N117        N  0.15727980  0.68787265  0.29859256    -0.56700
C118        C  0.08645734  0.64888543  0.17096340     0.27400
C119        C  0.13178885  0.67611618  0.18516867     0.27400
C120        C  0.09731581  0.65883878  0.38243553     0.27400
C121        C  0.14261511  0.68268577  0.39749253     0.27400
C122        C  0.05312125  0.62604062  0.22645970     0.36000
C123        C  0.05731943  0.63064849  0.30706856     0.36000
C124        C  0.17183166  0.69466011  0.26314245     0.36000
C125        C  0.17602529  0.69604222  0.34446038     0.36000
C126        C  0.09241556  0.65789297  0.12426556    -0.21400
C127        C  0.12099184  0.67515133  0.13326231    -0.21400
C128        C  0.10802547  0.67153299  0.43127394    -0.21400
C129        C  0.13656018  0.68637914  0.44092961    -0.21400
C130        C  0.02657422  0.60836794  0.23410756    -0.22500
C131        C  0.02922132  0.61129439  0.28511346    -0.22500
C132        C  0.19999405  0.70738725  0.28667781    -0.22500
C133        C  0.20262763  0.70821786  0.33809184    -0.22500
C134        C  0.05915712  0.63107345  0.17822369    -0.17800
C135        C  0.16061825  0.69152609  0.20976706    -0.17800
C136        C  0.16992478  0.69495390  0.39179997    -0.17800
C137        C  0.06850970  0.64116658  0.35868018    -0.17800
H138        H  0.07772482  0.65284584  0.08750967     0.15100
H139        H  0.13248853  0.68581690  0.10474460     0.15100
H140        H  0.09649486  0.67020015  0.45743960     0.15100
H141        H  0.15109368  0.69865982  0.47596672     0.15100
H142        H  0.00720941  0.59522887  0.20572367     0.13300
H143        H  0.01229016  0.60072910  0.30375749     0.13300
H144        H  0.21700622  0.71567593  0.26870263     0.13300
H145        H  0.22203375  0.71739353  0.36733859     0.13300
H146        H  0.11262239  0.65420752  0.24495758     0.26600
H147        H  0.11662118  0.65643774  0.32895755     0.26600
N148        N  0.50388430  0.62729634  0.09666527    -0.03000
C149        C  0.48030121  0.62672132  0.58688064    -0.00400
C150        C  0.46141929  0.61292186  0.54086628    -0.23300
C151        C  0.46974847  0.59829457  0.52295911    -0.23500
C152        C  0.49342139  0.60362108  0.55855524    -0.00500
H153        H  0.44531834  0.61583608  0.51971842     0.13200
H154        H  0.46124004  0.58741003  0.48570762     0.13300
N155        N  0.40416952  0.76579891  0.00847773    -0.26800
N156        N  0.41124651  0.79160373  0.00146239    -0.34700
C157        C  0.38948663  0.79293325  0.00080565     0.01500
C158        C  0.36753199  0.76664654  0.00823842     0.07500
C159        C  0.37751526  0.74983898  0.01160447    -0.05600
H160        H  0.39024946  0.81205886  0.99850729     0.08200
H161        H  0.36682587  0.72788877  0.01795558     0.09400
Cu162      Cu  0.45083642  0.82362475  0.99684036     0.44200
Cu163      Cu  0.43311469  0.75544559  0.02510716     0.42000
Cu164      Cu  0.49535625  0.80095069  0.51892020     0.43900
N165        N  0.48180451  0.84094277  0.46592862    -0.34200
N166        N  0.50177985  0.83652238  0.48194029    -0.28500
C167        C  0.52348693  0.85533541  0.46250390    -0.04600
C168        C  0.51681832  0.87243351  0.43289780     0.07600
C169        C  0.49016400  0.86248633  0.43622283     0.01400
H170        H  0.54166918  0.85494093  0.46581986     0.09100
H171        H  0.47645258  0.86816006  0.41372953     0.08200
N172        N  0.49280763  0.77195315  0.06264184    -0.35700
N173        N  0.46616009  0.75147553  0.05581185    -0.27900
C174        C  0.46414988  0.72809516  0.07232165    -0.03100
C175        C  0.49075286  0.73381067  0.09038172     0.05500
C176        C  0.50846467  0.76203271  0.08392912     0.03600
H177        H  0.44457353  0.70806824  0.06989993     0.08700
H178        H  0.51798506  0.76355612  0.58236422     0.07500
N179        N  0.25730764  0.74928740  0.07469520    -0.03000
C180        C  0.28527819  0.76304537  0.08292249    -0.00400
C181        C  0.29838952  0.77597285  0.13160262    -0.23300
C182        C  0.27771024  0.76966479  0.15424665    -0.23500
C183        C  0.25273014  0.75292753  0.11869820    -0.00500
H184        H  0.32043704  0.78677475  0.15003724     0.13200
H185        H  0.28047514  0.77459258  0.19368314     0.13300
N186        N  0.56075166  0.95237828  0.23907693    -0.03000
C187        C  0.54815532  0.92545758  0.25139270    -0.00400
C188        C  0.53626753  0.90789125  0.20769435    -0.23300
C189        C  0.54192253  0.92464859  0.16745195    -0.23500
C190        C  0.55679439  0.95177718  0.18794736    -0.00500
H191        H  0.52413505  0.88529865  0.20513813     0.13200
H192        H  0.53566890  0.91781189  0.12766051     0.13300
C193        C  0.53440838  0.92459101  0.33127004    -0.08700
C194        C  0.54495903  0.91551040  0.30281969     0.07500
C195        C  0.55024898  0.89525384  0.32217437    -0.02500
C196        C  0.54261572  0.88267019  0.36652927    -0.06900
C197        C  0.53010821  0.89025579  0.39299594     0.06600
C198        C  0.52754451  0.91260576  0.37649397    -0.02000
Br199      Br  0.51689364  0.93079206  0.91321628    -0.01600
H200        H  0.53042179  0.94029879  0.31751174     0.10500
H201        H  0.54538391  0.86601205  0.37892498     0.08500
Br202      Br  0.56811645  0.88416907  0.28978913    -0.02100
C203        C  0.30858759  0.74085831  0.07217562    -0.08700
C204        C  0.29974334  0.75833356  0.05290369     0.07500
C205        C  0.31027534  0.77538422  0.01396965    -0.02500
C206        C  0.33072642  0.77592356  0.99686596    -0.06900
C207        C  0.34163661  0.76030759  0.01940522     0.06600
C208        C  0.32974516  0.74205903  0.05690437    -0.02000
Br209      Br  0.34398241  0.72189526  0.09641713    -0.01600
H210        H  0.30084123  0.72812991  0.10305415     0.10500
H211        H  0.32807898  0.77861442  0.45113344     0.08500
Br212      Br  0.29038949  0.79065347  0.47467103    -0.02100
C213        C  0.50803141  0.67811743  0.59812289    -0.08700
C214        C  0.49580821  0.66317448  0.11398988     0.07500
C215        C  0.47721967  0.66488594  0.13350556    -0.02500
C216        C  0.47814707  0.68955573  0.13084740    -0.06900
C217        C  0.49702396  0.71256209  0.10762207     0.06600
C218        C  0.50757099  0.70210418  0.59103643    -0.02000
Br219      Br  0.53924492  0.73400758  0.57211046    -0.01600
H220        H  0.52553308  0.67874258  0.59185783     0.10500
H221        H  0.46246590  0.68987386  0.14311317     0.08500
Br222      Br  0.44818367  0.63293614  0.15820377    -0.02100
C223        C  0.22886872  0.71059802  0.50812489    -0.08700
C224        C  0.23673835  0.73654461  0.52701870     0.07500
C225        C  0.22329809  0.74916168  0.50023028    -0.02500
C226        C  0.20232419  0.73582393  0.45542675    -0.06900
C227        C  0.19364069  0.70936695  0.43765667     0.06600
C228        C  0.20702511  0.69669625  0.46432470    -0.02000
Br229      Br  0.19527911  0.66004877  0.44307949    -0.01600
H230        H  0.23920920  0.70085204  0.52823812     0.10500
H231        H  0.19220695  0.74576077  0.43501240     0.08500
Br232      Br  0.23114220  0.78321904  0.02580097    -0.02100
C233        C  0.19112915  0.69255491  0.16159982    -0.08700
C234        C  0.18080190  0.70620625  0.17788677     0.07500
C235        C  0.19236423  0.73461141  0.16964216    -0.02500
C236        C  0.21482350  0.74926901  0.14713790    -0.06900
C237        C  0.22587546  0.73588658  0.13255120     0.06600
C238        C  0.21380154  0.70724851  0.13973844    -0.02000
Br239      Br  0.22992923  0.68818276  0.12791474    -0.01600
H240        H  0.18270816  0.67087760  0.16906504     0.10500
H241        H  0.22446284  0.77142944  0.14302780     0.08500
Br242      Br  0.17925560  0.75447381  0.19162556    -0.02100
C243        C  0.60717315  0.00845304  0.34555295    -0.08700
C244        C  0.59207849  0.02046400  0.34298326     0.07500
C245        C  0.56751264  0.01080459  0.30403653    -0.02500
C246        C  0.55813777  0.98915426  0.26889164    -0.06900
C247        C  0.57265296  0.97652837  0.27242617     0.06600
C248        C  0.59756818  0.98655428  0.31051275    -0.02000
Br249      Br  0.61893670  0.97095454  0.31523931    -0.01600
H250        H  0.62617480  0.01586272  0.37529573     0.10500
H251        H  0.53878068  0.98124406  0.23999443     0.08500
Br252      Br  0.55097195  0.03127627  0.78534924    -0.02100
C253        C  0.56038239  0.00578010  0.09617377    -0.08700
C254        C  0.58836903  0.02062811  0.09418885     0.07500
C255        C  0.60617077  0.01356368  0.12499110    -0.02500
C256        C  0.59579533  0.99176345  0.15706998    -0.06900
C257        C  0.56765243  0.97646296  0.15800025     0.06600
C258        C  0.54987361  0.98358138  0.12742198    -0.02000
Br259      Br  0.51108627  0.96322364  0.12653670    -0.01600
H260        H  0.54656329  0.01103538  0.07234112     0.10500
H261        H  0.60947288  0.98612641  0.18010003     0.08500
Br262      Br  0.64440604  0.03246751  0.12280944    -0.02100
C263        C  0.65187029  0.19211484  0.16383054    -0.08700
C264        C  0.68092622  0.20971927  0.18235392     0.07500
C265        C  0.69814724  0.20465128  0.16515752    -0.02500
C266        C  0.68621326  0.18271844  0.12855065    -0.06900
C267        C  0.65719324  0.16575358  0.10859171     0.06600
C268        C  0.63992342  0.17025297  0.12707942    -0.02000
Br269      Br  0.60011233  0.14787048  0.10159445    -0.01600
H270        H  0.63849672  0.19604677  0.17652205     0.10500
H271        H  0.69958659  0.17912506  0.11494416     0.08500
Br272      Br  0.73794477  0.22696750  0.19103754    -0.02100
C273        C  0.63915765  0.17734695  0.82946243    -0.08700
C274        C  0.65508550  0.16666421  0.85193125     0.07500
C275        C  0.68095912  0.17686366  0.34323206    -0.02500
C276        C  0.69139571  0.19916769  0.31227490    -0.06900
C277        C  0.67624464  0.21077885  0.29113172     0.06600
C278        C  0.64949210  0.19872721  0.29848895    -0.02000
Br279      Br  0.62731077  0.21290705  0.26858602    -0.01600
H280        H  0.61896269  0.16854025  0.83681079     0.10500
H281        H  0.71184547  0.20819980  0.30597017     0.08500
Br282      Br  0.70426869  0.16412162  0.37531756    -0.02100
C283        C  0.72229665  0.29173678  0.41162543    -0.08700
C284        C  0.70798868  0.30486168  0.40646131     0.07500
C285        C  0.68843129  0.30022535  0.35967503    -0.02500
C286        C  0.68444803  0.28375739  0.31950215    -0.06900
C287        C  0.69991567  0.27212741  0.32396896     0.06600
C288        C  0.71872145  0.27586090  0.37072580    -0.02000
Br289      Br  0.73971250  0.26284966  0.87384816    -0.01600
H290        H  0.73417840  0.29393270  0.94290355     0.10500
H291        H  0.67056388  0.28165962  0.28307970     0.08500
Br292      Br  0.66961286  0.31895236  0.34376570    -0.02100
C293        C  0.67488303  0.47824184  0.12801298    -0.08700
C294        C  0.64576471  0.46097285  0.11254185     0.07500
C295        C  0.63509358  0.44493223  0.56998600    -0.02500
C296        C  0.65122711  0.44002930  0.54874956    -0.06900
C297        C  0.67846178  0.45194464  0.06892186     0.06600
C298        C  0.69133614  0.47368409  0.10752837    -0.02000
Br299      Br  0.73045783  0.49507828  0.14096597    -0.01600
H300        H  0.68483310  0.49398483  0.15925680     0.10500
H301        H  0.64101280  0.42496884  0.51631217     0.08500
Br302      Br  0.59555930  0.42410113  0.54144733    -0.02100
C303        C  0.01937748  0.60466246  0.44477207    -0.08700
C304        C  0.00505413  0.61779217  0.43481384     0.07500
C305        C  0.01403898  0.64084542  0.40463931    -0.02500
C306        C  0.03569274  0.64903949  0.38199408    -0.06900
C307        C  0.04849431  0.63446248  0.38895345     0.06600
C308        C  0.04088584  0.61273249  0.42190940    -0.02000
Br309      Br  0.05740237  0.59181618  0.43283185    -0.01600
H310        H  0.01239796  0.58661012  0.46700673     0.10500
H311        H  0.04185121  0.66611438  0.35725977     0.08500
Br312      Br  0.99680838  0.66113024  0.39195453    -0.02100
C313        C  0.00244010  0.62199235  0.06371848    -0.08700
C314        C  0.99227689  0.59578798  0.04186448     0.07500
C315        C  0.00339918  0.58068679  0.06601304    -0.02500
C316        C  0.02491373  0.59222489  0.11084572    -0.06900
C317        C  0.03533420  0.61863665  0.13220827     0.06600
C318        C  0.02360673  0.63335226  0.10880961    -0.02000
Br319      Br  0.03633446  0.66922006  0.13665707    -0.01600
H320        H  0.99399201  0.63372226  0.04509611     0.10500
H321        H  0.03382414  0.58078006  0.12874694     0.08500
Br322      Br  0.99072785  0.54497584  0.03800826    -0.02100
C323        C  0.91832237  0.52031664  0.00681600    -0.08700
C324        C  0.92829764  0.55184419  0.51375940     0.07500
C325        C  0.91678439  0.55373996  0.05051161    -0.02500
C326        C  0.89377993  0.53165145  0.06667195    -0.06900
C327        C  0.88157444  0.50367477  0.05038510     0.06600
C328        C  0.89521793  0.49811544  0.02230702    -0.02000
Br329      Br  0.88186860  0.46168312  0.99612997    -0.01600
H330        H  0.92692493  0.51588124  0.98133054     0.10500
H331        H  0.88418689  0.53652565  0.08908037     0.08500
Br332      Br  0.93155540  0.59392917  0.57128696    -0.02100
C333        C  0.61621203  0.53562404  0.23874277    -0.08700
C334        C  0.59006758  0.52184188  0.24947764     0.07500
C335        C  0.56968169  0.49373615  0.23150221    -0.02500
C336        C  0.57627178  0.47936784  0.20581415    -0.06900
C337        C  0.60294381  0.49272892  0.19752087     0.06600
C338        C  0.62286602  0.52122549  0.21333705    -0.02000
Br339      Br  0.66068942  0.54027888  0.20853071    -0.01600
H340        H  0.63212974  0.55706378  0.25346394     0.10500
H341        H  0.56112267  0.45727264  0.19506061     0.08500
Br342      Br  0.53385092  0.47341384  0.24658723    -0.02100
C343        C  0.58143142  0.49517879  0.52774123    -0.08700
C344        C  0.60324654  0.51890126  0.51164530     0.07500
C345        C  0.63107431  0.52864271  0.53665260    -0.02500
C346        C  0.63668431  0.51488171  0.57789974    -0.06900
C347        C  0.61480158  0.49174035  0.59509736     0.06600
C348        C  0.58700638  0.48161967  0.56906980    -0.02000
Br349      Br  0.55596615  0.44886340  0.58781403    -0.01600
H350        H  0.55997327  0.48739849  0.50836582     0.10500
H351        H  0.65809239  0.52266909  0.59752275     0.08500
Br352      Br  0.66180209  0.56122846  0.51689281    -0.02100
C353        C  0.52129729  0.56935098  0.50728323    -0.08700
C354        C  0.54406490  0.59279640  0.49259999     0.07500
C355        C  0.55295227  0.61973122  0.50854979    -0.02500
C356        C  0.53748436  0.62284503  0.53483371    -0.06900
C357        C  0.51330204  0.59938075  0.54561293     0.06600
C358        C  0.50587116  0.57249237  0.53360282    -0.02000
Br359      Br  0.47419771  0.53964455  0.55052481    -0.01600
H360        H  0.51472172  0.54854484  0.49603708     0.10500
H361        H  0.54320769  0.64364177  0.54361821     0.08500
Br362      Br  0.58487146  0.65266267  0.49242480    -0.02100
C363        C  0.54435124  0.63944792  0.16861607    -0.08700
C364        C  0.51585211  0.62149520  0.14493203     0.07500
C365        C  0.49943849  0.59625557  0.16650120    -0.02500
C366        C  0.51171568  0.58872068  0.20971049    -0.06900
C367        C  0.54035892  0.60610460  0.23257067     0.06600
C368        C  0.55668809  0.63190964  0.21226038    -0.02000
Br369      Br  0.59593267  0.65682253  0.24186286    -0.01600
H370        H  0.55707342  0.65891145  0.15235236     0.10500
H371        H  0.49895551  0.56891438  0.22507833     0.08500
Br372      Br  0.46019896  0.57092137  0.13699547    -0.02100
N373        N  0.58045679  0.57489492  0.80057471    -0.36200
N374        N  0.59624812  0.54613359  0.88263660    -0.56700
N375        N  0.58073305  0.56577717  0.95372106    -0.36200
N376        N  0.56268084  0.59243567  0.87102311    -0.56700
C377        C  0.58373861  0.55910142  0.77310468     0.27400
C378        C  0.56672346  0.58435111  0.76731800     0.27400
C379        C  0.58621892  0.54876954  0.98363280     0.27400
C380        C  0.56753727  0.57249004  0.97716940     0.27400
C381        C  0.60387188  0.54061574  0.84493030     0.36000
C382        C  0.60493091  0.53658026  0.92531581     0.36000
C383        C  0.55726628  0.60498846  0.82985253     0.36000
C384        C  0.55710189  0.59990539  0.90968611     0.36000
C385        C  0.57302759  0.55948927  0.72169108    -0.21400
C386        C  0.56228712  0.57534256  0.71803562    -0.21400
C387        C  0.57741360  0.54567588  0.02768475    -0.21400
C388        C  0.56552983  0.56046129  0.02346468    -0.21400
C389        C  0.61752284  0.52751780  0.86385132    -0.22500
C390        C  0.61810791  0.52489659  0.91457480    -0.22500
C391        C  0.54840157  0.62066850  0.84252622    -0.22500
C392        C  0.54818667  0.61738052  0.89289288    -0.22500
C393        C  0.59614377  0.54431414  0.79266866    -0.17800
C394        C  0.55753612  0.60044592  0.77979575    -0.17800
C395        C  0.55745220  0.58939365  0.95865982    -0.17800
C396        C  0.59925015  0.53620182  0.97290148    -0.17800
H397        H  0.57261163  0.54909458  0.68997493     0.15100
H398        H  0.55192373  0.57932099  0.68294428     0.15100
H399        H  0.57925160  0.53398502  0.05978695     0.15100
H400        H  0.55650699  0.56218720  0.05155424     0.15100
H401        H  0.62554515  0.51987033  0.84301344     0.13300
H402        H  0.62667896  0.51489212  0.94023033     0.13300
H403        H  0.54198393  0.63260923  0.81769159     0.13300
H404        H  0.54156742  0.62635624  0.91432902     0.13300
H405        H  0.58871819  0.58031070  0.83934280     0.26600
H406        H  0.58725445  0.57391225  0.92098774     0.26600
N407        N  0.97215696  0.58607518  0.99336991    -0.03000
C408        C  0.94405550  0.56899126  0.98480133    -0.00400
C409        C  0.93142768  0.56972982  0.93508312    -0.23300
C410        C  0.95250595  0.58822526  0.91243103    -0.23500
C411        C  0.97722972  0.59802508  0.94913710    -0.00500
H412        H  0.90933509  0.55710978  0.91666813     0.13200
H413        H  0.95015002  0.59265015  0.87271154     0.13300
N414        N  0.62063945  0.47916095  0.64004470    -0.03000
C415        C  0.63155931  0.46373850  0.64563646    -0.00400
C416        C  0.63140510  0.45309790  0.69306941    -0.23300
C417        C  0.62022171  0.46245596  0.71758564    -0.23500
C418        C  0.61413426  0.47864993  0.68443828    -0.00500
H419        H  0.64026083  0.44139978  0.70934341     0.13200
H420        H  0.61868047  0.45954914  0.75665781     0.13300
N421        N  0.80892851  0.46422598  0.54627781    -0.26800
N422        N  0.81338690  0.44426641  0.54896415    -0.34700
C423        C  0.84072751  0.45594813  0.55381301     0.01500
C424        C  0.85410447  0.48474027  0.55284336     0.07500
C425        C  0.83316178  0.48905828  0.54879191    -0.05600
H426        H  0.84971336  0.44405168  0.55581326     0.08200
H427        H  0.83503630  0.50873826  0.54441035     0.09400
Cu428      Cu  0.78096431  0.40229573  0.53429446     0.44200
Cu429      Cu  0.76977693  0.45665458  0.53526970     0.42000
Cu430      Cu  0.71014922  0.38471992  0.51473088     0.43900
N431        N  0.74268116  0.36312547  0.99814031    -0.34200
N432        N  0.71708253  0.35676435  0.99118507    -0.28500
C433        C  0.69918683  0.33345979  0.95967958    -0.04600
C434        C  0.71432080  0.32515981  0.94481366     0.07600
C435        C  0.74174192  0.34423570  0.97089166     0.01400
H436        H  0.67704578  0.32437836  0.94630955     0.09100
H437        H  0.76003093  0.34586908  0.96644443     0.08200
N438        N  0.70834186  0.41819723  0.53053155    -0.35700
N439        N  0.73001150  0.44446282  0.53547076    -0.27900
C440        C  0.72290482  0.46114758  0.54713387    -0.03100
C441        C  0.69558114  0.44469638  0.55112255     0.05500
C442        C  0.68686685  0.41755799  0.53948648     0.03600
H443        H  0.73707546  0.48357728  0.55401398     0.08700
H444        H  0.66684827  0.39863311  0.54015665     0.07500
N445        N  0.68719404  0.23509207  0.75924605    -0.03000
C446        C  0.69722140  0.26190191  0.77186298    -0.00400
C447        C  0.70641587  0.27833791  0.73228270    -0.23300
C448        C  0.70226540  0.26107724  0.69439821    -0.23500
C449        C  0.69056226  0.23472117  0.71215092    -0.00500
H450        H  0.71487520  0.30040882  0.73090258     0.13200
H451        H  0.70639120  0.26688250  0.65730229     0.13300
N452        N  0.62113153  0.09231186  0.39775281    -0.36200
N453        N  0.64120252  0.13523949  0.47691901    -0.56700
N454        N  0.62295960  0.09278645  0.55046050    -0.36200
N455        N  0.60579972  0.05032926  0.47289813    -0.56700
C456        C  0.63364402  0.11532565  0.37172865     0.27400
C457        C  0.61515381  0.07043124  0.36987575     0.27400
C458        C  0.63681667  0.11603000  0.58218589     0.27400
C459        C  0.61710895  0.07097570  0.57964661     0.27400
C460        C  0.64547048  0.15122799  0.43671386     0.36000
C461        C  0.64668628  0.15145728  0.51697854     0.36000
C462        C  0.59576889  0.03337760  0.43064116     0.36000
C463        C  0.59580404  0.03352407  0.51024482     0.36000
C464        C  0.63531683  0.10956099  0.82517549    -0.21400
C465        C  0.62393532  0.08135864  0.82375870    -0.21400
C466        C  0.63934969  0.10882161  0.63224148    -0.21400
C467        C  0.62677329  0.08039980  0.63064212    -0.21400
C468        C  0.65404818  0.17786864  0.45162900    -0.22500
C469        C  0.65466447  0.17794968  0.50225091    -0.22500
C470        C  0.57971314  0.00568495  0.44140990    -0.22500
C471        C  0.57974971  0.00575250  0.49172599    -0.22500
C472        C  0.64364759  0.14290641  0.38759242    -0.17800
C473        C  0.60147620  0.04226420  0.38268201    -0.17800
C474        C  0.60209971  0.04264054  0.56155864    -0.17800
C475        C  0.64623720  0.14341274  0.56745918    -0.17800
H476        H  0.64355210  0.12306572  0.79551259     0.15100
H477        H  0.62168599  0.06909627  0.79281210     0.15100
H478        H  0.64898270  0.12255205  0.66646378     0.15100
H479        H  0.62488115  0.06811787  0.66344054     0.15100
H480        H  0.65974325  0.19564696  0.42880894     0.13300
H481        H  0.66074855  0.19567696  0.52571419     0.13300
H482        H  0.56912870  0.98730863  0.41569244     0.13300
H483        H  0.56930638  0.98735784  0.51229650     0.13300
H484        H  0.61481104  0.09116000  0.43028077     0.26600
H485        H  0.61536729  0.09142641  0.51149671     0.26600
N486        N  0.11099967  0.66274235  0.70676274    -0.36200
N487        N  0.07178980  0.64375392  0.76945822    -0.56700
N488        N  0.11828532  0.66696586  0.86142929    -0.36200
N489        N  0.15758542  0.68827260  0.79852381    -0.56700
C490        C  0.08708951  0.65272873  0.66967900     0.27400
C491        C  0.13252789  0.67835614  0.68475484     0.27400
C492        C  0.09712895  0.65992281  0.88209030     0.27400
C493        C  0.14243179  0.68245772  0.89766825     0.27400
C494        C  0.05314557  0.63109382  0.72427517     0.36000
C495        C  0.05704096  0.63464757  0.80509796     0.36000
C496        C  0.17234397  0.69575618  0.76321874     0.36000
C497        C  0.17615300  0.69632210  0.84456660     0.36000
C498        C  0.09354412  0.66119509  0.62315198    -0.21400
C499        C  0.12215387  0.67748605  0.63270077    -0.21400
C500        C  0.10787691  0.67038313  0.93254073    -0.21400
C501        C  0.13637187  0.68442301  0.94245976    -0.21400
C502        C  0.02637353  0.61413203  0.73119617    -0.22500
C503        C  0.02882992  0.61637421  0.78229195    -0.22500
C504        C  0.20050550  0.70872689  0.78705104    -0.22500
C505        C  0.20289727  0.70904893  0.83843015    -0.22500
C506        C  0.05956974  0.63595083  0.67633740    -0.17800
C507        C  0.16130179  0.69297321  0.70978661    -0.17800
C508        C  0.16979597  0.69464258  0.89194130    -0.17800
C509        C  0.06828905  0.64331763  0.85768436    -0.17800
H510        H  0.07918941  0.65641750  0.58607965     0.15100
H511        H  0.13394873  0.68753663  0.60438186     0.15100
H512        H  0.09638666  0.66799257  0.95964938     0.15100
H513        H  0.15088028  0.69487031  0.97874964     0.15100
H514        H  0.00700864  0.60169281  0.70239138     0.13300
H515        H  0.01172081  0.60585152  0.80048992     0.13300
H516        H  0.21769831  0.71763005  0.76934795     0.13300
H517        H  0.22226435  0.71834985  0.86779448     0.13300
H518        H  0.11249583  0.65744347  0.74410427     0.26600
H519        H  0.11616744  0.65951487  0.82625271     0.26600
N520        N  0.49997554  0.62087427  0.59788110    -0.03000
C521        C  0.48702803  0.63648012  0.09060626    -0.00400
C522        C  0.46850723  0.62716186  0.04292748    -0.23300
C523        C  0.47449973  0.61227549  0.01865231    -0.23500
C524        C  0.49619439  0.61257974  0.05258295    -0.00500
H525        H  0.45469415  0.63364477  0.02524159     0.13200
H526        H  0.46564237  0.60423212  0.97918050     0.13300
N527        N  0.39379002  0.75591333  0.48385779    -0.26800
N528        N  0.40172396  0.78203382  0.47748196    -0.34700
C529        C  0.38135651  0.78471185  0.48126415     0.01500
C530        C  0.35961602  0.75911812  0.49131061     0.07500
C531        C  0.36802741  0.74117950  0.49165513    -0.05600
H532        H  0.38332215  0.80441338  0.48149941     0.08200
H533        H  0.35723899  0.71956809  0.50067262     0.09400
Cu534      Cu  0.44153863  0.81367134  0.47312457     0.44200
Cu535      Cu  0.42134464  0.74396776  0.49628692     0.42000
Cu536      Cu  0.50605478  0.81156205  0.03800209     0.43900
N537        N  0.48959829  0.84896943  0.98208226    -0.34200
N538        N  0.50989403  0.84494053  0.99682399    -0.28500
C539        C  0.52991863  0.86201985  0.97257694    -0.04600
C540        C  0.52178015  0.87748994  0.94092941     0.07600
C541        C  0.49602243  0.86841390  0.94804866     0.01400
H542        H  0.54781852  0.86136321  0.97436788     0.09100
H543        H  0.48140688  0.87301260  0.92574831     0.08200
N544        N  0.48061593  0.76057583  0.54213044    -0.35700
N545        N  0.45391139  0.73987683  0.53074950    -0.27900
C546        C  0.45127967  0.71635123  0.54808949    -0.03100
C547        C  0.47753282  0.72210392  0.57188617     0.05500
C548        C  0.49562129  0.75063203  0.56770610     0.03600
H549        H  0.43150125  0.69628466  0.54283692     0.08700
H550        H  0.53100736  0.77457231  0.09364080     0.07500
N551        N  0.25763429  0.74976424  0.57415411    -0.03000
C552        C  0.28555010  0.76272423  0.58268629    -0.00400
C553        C  0.29872342  0.77553170  0.63150883    -0.23300
C554        C  0.27814360  0.76980891  0.65389637    -0.23500
C555        C  0.25315701  0.75359869  0.61807186    -0.00500
H556        H  0.32067455  0.78576329  0.65027190     0.13200
H557        H  0.28090004  0.77457875  0.69341981     0.13300
N558        N  0.56344589  0.95256445  0.74205721    -0.03000
C559        C  0.55093122  0.92567166  0.75462850    -0.00400
C560        C  0.53964639  0.90799876  0.71131311    -0.23300
C561        C  0.54567725  0.92463423  0.67102818    -0.23500
C562        C  0.56011426  0.95176670  0.69114656    -0.00500
H563        H  0.52756455  0.88540990  0.70894089     0.13200
H564        H  0.53989145  0.91771546  0.63142989     0.13300
C565        C  0.53646266  0.92562807  0.83271630    -0.08700
C566        C  0.54701075  0.91589467  0.80572548     0.07500
C567        C  0.55200998  0.89563174  0.82656173    -0.02500
C568        C  0.54506933  0.88448910  0.87209509    -0.06900
C569        C  0.53314356  0.89317036  0.89782482     0.06600
C570        C  0.52985546  0.91476990  0.87860555    -0.02000
Br571      Br  0.51536988  0.92808772  0.41449123    -0.01600
H572        H  0.53238129  0.94108979  0.81733444     0.10500
H573        H  0.54800401  0.86811548  0.88617466     0.08500
Br574      Br  0.56846855  0.88245707  0.79490512    -0.02100
C575        C  0.31137164  0.74257656  0.57517851    -0.08700
C576        C  0.29954727  0.75721231  0.55266806     0.07500
C577        C  0.30491319  0.76943020  0.50671712    -0.02500
C578        C  0.32312842  0.76806470  0.48541069    -0.06900
C579        C  0.33635614  0.75482730  0.50952650     0.06600
C580        C  0.32980750  0.74142762  0.55451013    -0.02000
Br581      Br  0.34787058  0.72466706  0.59429974    -0.01600
H582        H  0.30752083  0.73338409  0.61096892     0.10500
H583        H  0.33936116  0.78996330  0.96801868     0.08500
Br584      Br  0.29957177  0.80042267  0.98750494    -0.02100
C585        C  0.51754543  0.68742537  0.09871664    -0.08700
C586        C  0.48452245  0.65247522  0.60513270     0.07500
C587        C  0.46187450  0.65190627  0.61274054    -0.02500
C588        C  0.46163725  0.67593243  0.60736466    -0.06900
C589        C  0.48330674  0.70071917  0.59251518     0.06600
C590        C  0.51807354  0.71192453  0.09433845    -0.02000
Br591      Br  0.54501574  0.74107399  0.06137432    -0.01600
H592        H  0.53185192  0.68616063  0.08325963     0.10500
H593        H  0.44330414  0.67446619  0.61110087     0.08500
Br594      Br  0.42927663  0.61787456  0.62428078    -0.02100
C595        C  0.22994342  0.71117250  0.00668515    -0.08700
C596        C  0.23662081  0.73627457  0.02725997     0.07500
C597        C  0.22226866  0.74822635  0.00172550    -0.02500
C598        C  0.20120375  0.73479056  0.95709650    -0.06900
C599        C  0.19349660  0.70897388  0.93792807     0.06600
C600        C  0.20808915  0.69715948  0.96293280    -0.02000
Br601      Br  0.19803737  0.66149774  0.93972933    -0.01600
H602        H  0.24115803  0.70206525  0.02559496     0.10500
H603        H  0.19031327  0.74418578  0.93777904     0.08500
Br604      Br  0.23327189  0.78486970  0.52302548    -0.02100
C605        C  0.19294047  0.69386878  0.66479733    -0.08700
C606        C  0.18164325  0.70727423  0.67811330     0.07500
C607        C  0.19206580  0.73511966  0.66640173    -0.02500
C608        C  0.21428660  0.74949722  0.64329834    -0.06900
C609        C  0.22636065  0.73646327  0.63194099     0.06600
C610        C  0.21545874  0.70836465  0.64253612    -0.02000
Br611      Br  0.23290909  0.69004331  0.63420338    -0.01600
H612        H  0.18535436  0.67264513  0.67475085     0.10500
H613        H  0.22306086  0.77129790  0.63650324     0.08500
Br614      Br  0.17804078  0.75490142  0.68490329    -0.02100
C615        C  0.60750811  0.00856042  0.84922516    -0.08700
C616        C  0.59359918  0.02211498  0.84168887     0.07500
C617        C  0.57087662  0.01365631  0.79895746    -0.02500
C618        C  0.56171262  0.99121809  0.76592142    -0.06900
C619        C  0.57488332  0.97695721  0.77456479     0.06600
C620        C  0.59835292  0.98617017  0.81588821    -0.02000
Br621      Br  0.61862599  0.96903702  0.82736560    -0.01600
H622        H  0.62519817  0.01512106  0.88168549     0.10500
H623        H  0.54361510  0.98420474  0.73428526     0.08500
Br624      Br  0.54531304  0.02549537  0.29927804    -0.02100
C625        C  0.56393508  0.00548307  0.59885919    -0.08700
C626        C  0.59221288  0.02094889  0.59855580     0.07500
C627        C  0.61010991  0.01437712  0.63079584    -0.02500
C628        C  0.59949040  0.99241116  0.66244124    -0.06900
C629        C  0.57103924  0.97635862  0.66118542     0.06600
C630        C  0.55318326  0.98299494  0.62933030    -0.02000
Br631      Br  0.51397062  0.96152780  0.62552141    -0.01600
H632        H  0.55004644  0.01034604  0.57394356     0.10500
H633        H  0.61323382  0.98718362  0.68673135     0.08500
Br634      Br  0.64874174  0.03390837  0.63101063    -0.02100
C635        C  0.65056813  0.19117788  0.66165974    -0.08700
C636        C  0.67953067  0.20946668  0.68044269     0.07500
C637        C  0.69745358  0.20530062  0.66365595    -0.02500
C638        C  0.68626564  0.18317678  0.62798482    -0.06900
C639        C  0.65732049  0.16543434  0.60793259     0.06600
C640        C  0.63939503  0.16946813  0.62507128    -0.02000
Br641      Br  0.59979385  0.14713878  0.59674107    -0.01600
H642        H  0.63669004  0.19466295  0.67356029     0.10500
H643        H  0.70015611  0.18019803  0.61482535     0.08500
Br644      Br  0.73725980  0.22963312  0.68777836    -0.02100
C645        C  0.63855553  0.17575745  0.32802590    -0.08700
C646        C  0.65435179  0.16504808  0.35147983     0.07500
C647        C  0.68129955  0.17820170  0.84213171    -0.02500
C648        C  0.69107778  0.20001542  0.80996984    -0.06900
C649        C  0.67578123  0.21158954  0.78962052     0.06600
C650        C  0.64950064  0.19991148  0.79896641    -0.02000
Br651      Br  0.62695332  0.21380599  0.76998515    -0.01600
H652        H  0.61806473  0.16676241  0.33412427     0.10500
H653        H  0.71118652  0.20878464  0.80229582     0.08500
Br654      Br  0.70490561  0.16572707  0.87382158    -0.02100
C655        C  0.71925008  0.29112262  0.90758850    -0.08700
C656        C  0.70536361  0.30461508  0.90292921     0.07500
C657        C  0.68643208  0.30104618  0.85592237    -0.02500
C658        C  0.68248460  0.28498073  0.81511652    -0.06900
C659        C  0.69741628  0.27275551  0.81925721     0.06600
C660        C  0.71578875  0.27571041  0.86616418    -0.02000
Br661      Br  0.74268752  0.26302852  0.37843774    -0.01600
H662        H  0.73758755  0.29518169  0.44678262     0.10500
H663        H  0.66892923  0.28348546  0.77867117     0.08500
Br664      Br  0.66844726  0.32062342  0.84100546    -0.02100
C665        C  0.67674705  0.47799052  0.63321362    -0.08700
C666        C  0.64782778  0.46351441  0.61335636     0.07500
C667        C  0.63280950  0.43977591  0.07367679    -0.02500
C668        C  0.64914214  0.43571107  0.05156902    -0.06900
C669        C  0.68007466  0.45336303  0.57039044     0.06600
C670        C  0.69289744  0.47299480  0.61270491    -0.02000
Br671      Br  0.73126833  0.49073691  0.64989382    -0.01600
H672        H  0.68655225  0.49185568  0.66737711     0.10500
H673        H  0.63877366  0.41887952  0.02231493     0.08500
Br674      Br  0.59302035  0.41421757  0.05343600    -0.02100
C675        C  0.01717410  0.59885161  0.93730240    -0.08700
C676        C  0.00447122  0.61313328  0.93667219     0.07500
C677        C  0.01507905  0.63910265  0.91525713    -0.02500
C678        C  0.03681671  0.64942514  0.89150453    -0.06900
C679        C  0.04825393  0.63415883  0.88933231     0.06600
C680        C  0.03901412  0.60923077  0.91400030    -0.02000
Br681      Br  0.05414099  0.58766319  0.91307673    -0.01600
H682        H  0.00885206  0.57863056  0.95276183     0.10500
H683        H  0.04419174  0.66888287  0.87323848     0.08500
Br684      Br  0.00009458  0.66071401  0.91704293    -0.02100
C685        C  0.00549315  0.62885899  0.55816939    -0.08700
C686        C  0.99244111  0.60113056  0.53994061     0.07500
C687        C  0.00115344  0.58467126  0.56746857    -0.02500
C688        C  0.02267805  0.59613313  0.61230272    -0.06900
C689        C  0.03592296  0.62397897  0.62995154     0.06600
C690        C  0.02701766  0.64032729  0.60276309    -0.02000
Br691      Br  0.04436363  0.67864652  0.62430020    -0.01600
H692        H  0.99915967  0.64175376  0.53684486     0.10500
H693        H  0.02959646  0.58352016  0.63288345     0.08500
Br694      Br  0.98629202  0.54752554  0.54330205    -0.02100
C695        C  0.91776312  0.52430551  0.49898001    -0.08700
C696        C  0.92829134  0.54804751  0.01835936     0.07500
C697        C  0.91769841  0.55672426  0.54899406    -0.02500
C698        C  0.89499779  0.53414201  0.56515152    -0.06900
C699        C  0.88255307  0.50648059  0.54659958     0.06600
C700        C  0.89542379  0.50162692  0.51551228    -0.02000
Br701      Br  0.88221915  0.46545954  0.48819287    -0.01600
H702        H  0.92571821  0.52046915  0.47130490     0.10500
H703        H  0.88591556  0.53838760  0.58982896     0.08500
Br704      Br  0.92978347  0.59134413  0.06801496    -0.02100
C705        C  0.62430009  0.54141659  0.74311593    -0.08700
C706        C  0.59880189  0.52912239  0.75583904     0.07500
C707        C  0.57716503  0.50121549  0.73870844    -0.02500
C708        C  0.58176554  0.48551757  0.71162527    -0.06900
C709        C  0.60770468  0.49733961  0.70100049     0.06600
C710        C  0.62896468  0.52566250  0.71621575    -0.02000
Br711      Br  0.66585147  0.54264524  0.70759065    -0.01600
H712        H  0.64115091  0.56274234  0.75698876     0.10500
H713        H  0.56558237  0.46358358  0.70137461     0.08500
Br714      Br  0.54189928  0.48313812  0.75539331    -0.02100
C715        C  0.58294266  0.49421931  0.02343050    -0.08700
C716        C  0.60529319  0.51987495  0.01297699     0.07500
C717        C  0.63262599  0.53016429  0.04239589    -0.02500
C718        C  0.63710140  0.51508460  0.08219732    -0.06900
C719        C  0.61451825  0.49040390  0.09456349     0.06600
C720        C  0.58733396  0.47977461  0.06436223    -0.02000
Br721      Br  0.55561429  0.44567122  0.07805597    -0.01600
H722        H  0.56187280  0.48598746  0.00081167     0.10500
H723        H  0.65810535  0.52316345  0.10485730     0.08500
Br724      Br  0.66415031  0.56530060  0.03112921    -0.02100
C725        C  0.51495924  0.57345750  0.98665118    -0.08700
C726        C  0.54329140  0.59386854  0.99048501     0.07500
C727        C  0.55691264  0.61869389  0.02116978    -0.02500
C728        C  0.54155007  0.62365519  0.04444543    -0.06900
C729        C  0.51270640  0.60399552  0.03775638     0.06600
C730        C  0.49963531  0.57829274  0.01010145    -0.02000
Br731      Br  0.46086460  0.54931785  0.00236453    -0.01600
H732        H  0.50453490  0.55407369  0.96380992     0.10500
H733        H  0.55182571  0.64364505  0.06504568     0.08500
Br734      Br  0.59590047  0.64690907  0.02942949    -0.02100
C735        C  0.54379221  0.63661117  0.66339779    -0.08700
C736        C  0.51449137  0.61993020  0.64832772     0.07500
C737        C  0.49975833  0.59855193  0.67914132    -0.02500
C738        C  0.51419198  0.59352857  0.72291036    -0.06900
C739        C  0.54341503  0.60935607  0.73687859     0.06600
C740        C  0.55829479  0.63151368  0.70748424    -0.02000
Br741      Br  0.59829262  0.65438657  0.72534055    -0.01600
H742        H  0.55534615  0.65281782  0.63972943     0.10500
H743        H  0.50255118  0.57630240  0.74497318     0.08500
Br744      Br  0.45986308  0.57359828  0.66018158    -0.02100
loop_ 
_geom_bond_atom_site_label_1 
_geom_bond_atom_site_label_2 
_geom_bond_distance 
_geom_bond_site_symmetry_2 
_ccdc_geom_bond_type 
N1            C6   1.355       .  A
N1            C5   1.352       .  A
N1           H33   1.034       .  S
N2            C9   1.350       .  A
N2           C10   1.353       .  A
N3            C8   1.349       .  A
N3            C7   1.353       .  A
N3           H34   1.035       .  S
N4           C11   1.355       .  A
N4           C12   1.353       .  A
C5           C13   1.387       .  A
C5           C21   1.417       .  A
C6           C22   1.420       .  A
C6           C14   1.388       .  A
C7           C15   1.387       .  A
C7           C24   1.414       .  A
C8           C23   1.411       .  A
C8           C16   1.387       .  A
C9           C21   1.419       .  A
C9           C17   1.390       .  A
C10          C24   1.412       .  A
C10          C18   1.384       .  A
C11          C19   1.386       .  A
C11          C22   1.418       .  A
C12          C20   1.387       .  A
C12          C23   1.419       .  A
C13          C14   1.376       .  A
C13          H25   1.082       .  S
C14          H26   1.082       .  S
C15          C16   1.375       .  A
C15          H27   1.083       .  S
C16          H28   1.083       .  S
C17          C18   1.370       .  A
C17          H29   1.082       .  S
C18          H30   1.082       .  S
C19          C20   1.372       .  A
C19          H31   1.082       .  S
C20          H32   1.082       .  S
C21         C334   1.481       .  S
C22         C367   1.492       .  S
C23         C354   1.482       .  S
C24         C344   1.487       .  S
N35          C39   1.355       .  A
N35          C36   1.355       .  A
N35         C686   1.440       .  S
C36          C37   1.382       .  A
C36         C324   1.472       .  S
C37          C38   1.372       .  A
C37          H40   1.082       .  S
C38          C39   1.382       .  A
C38          H41   1.082       .  S
C39         C304   1.475   1_655  S
N42          C46   1.353       .  A
N42          C43   1.351       .  A
N42         C719   1.438       .  S
C43          C44   1.382       .  A
C43         C294   1.468       .  S
C44          C45   1.375       .  A
C44          H47   1.082       .  S
C45          C46   1.381       .  A
C45          H48   1.082       .  S
C46         C337   1.470       .  S
N49          C53   1.342       .  A
N49          N50   1.319       .  A
N49         Cu57   2.070       .  S
N50          C51   1.346       .  A
N50         Cu56   2.075       .  S
C51          C52   1.391       .  A
C51          H54   1.079       .  S
C52          C53   1.388       .  A
C52         C327   1.491       .  S
C53          H55   1.082       .  S
Cu56        N431   2.076   1_554  S
Cu57         N67   2.069       .  S
Cu58         N66   2.079       .  S
Cu58        N432   2.078   1_554  S
N59          C63   1.345       .  A
N59          N60   1.323       .  A
N59        Cu428   2.079       .  S
N60          C61   1.348       .  A
N60        Cu430   2.091       .  S
C61          C62   1.390       .  A
C61          H64   1.080       .  S
C62          C63   1.386       .  A
C62         C284   1.492       .  S
C63          H65   1.082       .  S
N66          C70   1.345       .  A
N66          N67   1.321       .  A
N67          C68   1.343       .  A
C68          C69   1.386       .  A
C68          H71   1.080       .  S
C69          C70   1.388       .  A
C69         C297   1.486       .  S
C70          H72   1.082       .  S
N73          C77   1.352       .  A
N73          C74   1.354       .  A
N73         C277   1.435       .  S
C74          C75   1.383       .  A
C74         C287   1.478       .  S
C75          C76   1.378       .  A
C75          H78   1.082       .  S
C76          C77   1.381       .  A
C76          H79   1.082       .  S
C77         C264   1.473       .  S
N80          C85   1.354       .  A
N80          C84   1.352       .  A
N80         H112   1.033       .  S
N81          C88   1.352       .  A
N81          C89   1.353   1_556  A
N82          C87   1.352       .  A
N82          C86   1.353       .  A
N82         H113   1.035       .  S
N83          C90   1.353       .  A
N83          C91   1.353   1_556  A
C84         C100   1.420       .  A
C84         C464   1.389       .  A
C85         C101   1.418       .  A
C85         C465   1.387       .  A
C86          C94   1.387       .  A
C86         C103   1.416       .  A
C87         C102   1.416       .  A
C87          C95   1.388       .  A
C88         C100   1.419       .  A
C88          C96   1.388       .  A
C89         C103   1.416       .  A
C89          C97   1.386       .  A
C90          C98   1.386       .  A
C90         C101   1.418       .  A
C91          C99   1.387   1_554  A
C91         C102   1.416       .  A
C92          C93   1.375       .  A
C92         C456   1.388       .  A
C92         H104   1.082       .  S
C93         C457   1.387       .  A
C93         H105   1.083       .  S
C94          C95   1.374       .  A
C94         H106   1.083       .  S
C95         H107   1.082       .  S
C96          C97   1.370   1_556  A
C96         H108   1.082       .  S
C97         H109   1.082       .  S
C98          C99   1.370       .  A
C98         H110   1.082   1_545  S
C99         H111   1.082   1_546  S
C100        C274   1.485       .  S
C101        C616   1.489       .  S
C102        C254   1.484       .  S
C103        C267   1.485       .  S
N114        C119   1.352       .  A
N114        C118   1.353       .  A
N114        H146   1.035       .  S
N115        C122   1.353       .  A
N115        C123   1.351       .  A
N116        C121   1.353       .  A
N116        C120   1.352       .  A
N116        H147   1.036       .  S
N117        C124   1.351       .  A
N117        C125   1.353       .  A
C118        C126   1.388       .  A
C118        C134   1.417       .  A
C119        C135   1.415       .  A
C119        C127   1.388       .  A
C120        C128   1.387       .  A
C120        C137   1.414       .  A
C121        C136   1.416       .  A
C121        C129   1.388       .  A
C122        C134   1.414       .  A
C122        C130   1.386       .  A
C123        C137   1.415       .  A
C123        C131   1.387       .  A
C124        C132   1.388       .  A
C124        C135   1.416       .  A
C125        C133   1.385       .  A
C125        C136   1.414       .  A
C126        C127   1.375       .  A
C126        H138   1.082       .  S
C127        H139   1.083       .  S
C128        C129   1.372       .  A
C128        H140   1.082       .  S
C129        H141   1.082       .  S
C130        C131   1.372       .  A
C130        H142   1.082       .  S
C131        H143   1.082       .  S
C132        C133   1.370       .  A
C132        H144   1.082       .  S
C133        H145   1.082       .  S
C134        C317   1.486       .  S
C135        C234   1.480       .  S
C136        C227   1.487       .  S
C137        C307   1.480       .  S
N148        C524   1.354       .  A
N148        C521   1.354       .  A
N148        C364   1.438       .  S
C149        N520   1.357       .  A
C149        C150   1.385       .  A
C149        C586   1.478       .  S
C150        C151   1.370       .  A
C150        H153   1.082       .  S
C151        C152   1.378       .  A
C151        H154   1.082       .  S
C152        N520   1.353       .  A
C152        C357   1.469       .  S
N155        C159   1.343       .  A
N155        N156   1.318       .  A
N155       Cu163   2.071       .  S
N156        C157   1.343       .  A
N156       Cu162   2.061   1_554  S
C157        C158   1.387       .  A
C157        H160   1.082   1_554  S
C158        C159   1.389       .  A
C158        C207   1.487       .  S
C159        H161   1.079       .  S
Cu162       N537   2.061       .  S
Cu163       N173   2.073       .  S
Cu164       N166   2.092       .  S
Cu164       N544   2.092       .  S
N165        C169   1.341       .  A
N165        N166   1.321       .  A
N165       Cu534   2.062       .  S
N166        C167   1.348       .  A
C167        C168   1.392       .  A
C167        H170   1.082       .  S
C168        C169   1.384       .  A
C168        C197   1.486       .  S
C169        H171   1.081       .  S
N172        C176   1.348       .  A
N172        N173   1.321       .  A
N172       Cu536   2.079       .  S
N173        C174   1.341       .  A
C174        C175   1.386       .  A
C174        H177   1.082       .  S
C175        C176   1.390       .  A
C175        C217   1.488       .  S
C176        H550   1.080       .  S
H178        C548   1.078       .  S
N179        C183   1.353       .  A
N179        C180   1.351       .  A
N179        C596   1.439       .  S
C180        C181   1.383       .  A
C180        C204   1.469       .  S
C181        C182   1.374       .  A
C181        H184   1.082       .  S
C182        C183   1.380       .  A
C182        H185   1.082       .  S
C183        C237   1.471       .  S
N186        C190   1.352       .  A
N186        C187   1.356       .  A
N186        C247   1.436       .  S
C187        C188   1.386       .  A
C187        C194   1.485       .  S
C188        C189   1.378       .  A
C188        H191   1.082       .  S
C189        C190   1.380       .  A
C189        H192   1.082       .  S
C190        C257   1.471       .  S
C193        C194   1.404       .  A
C193        C198   1.400       .  A
C193        H200   1.081       .  S
C194        C195   1.410       .  A
C195        C196   1.399       .  A
C195       Br202   1.920       .  S
C196        C197   1.405       .  A
C196        H201   1.082       .  S
C197        C198   1.413       .  A
C198       Br571   1.921       .  S
Br199       C570   1.921       .  S
C203        C204   1.398       .  A
C203        C208   1.395       .  A
C203        H210   1.084       .  S
C204        C205   1.401       .  A
C205        C206   1.401   1_554  A
C205       Br584   1.916   1_554  S
C206        C207   1.411   1_556  A
C206        H583   1.083       .  S
C207        C208   1.418       .  A
C208       Br209   1.921       .  S
H211        C578   1.083       .  S
Br212       C577   1.915       .  S
C213        C218   1.404       .  A
C213        C586   1.402       .  A
C213        H220   1.084       .  S
C214        C215   1.402       .  A
C214        C585   1.402       .  A
C214        C521   1.471       .  S
C215        C216   1.398       .  A
C215       Br222   1.916       .  S
C216        C217   1.409       .  A
C216        H221   1.083       .  S
C217        C590   1.417       .  A
C218        C589   1.419       .  A
C218       Br219   1.918       .  S
C223        C224   1.402       .  A
C223        C228   1.402       .  A
C223        H230   1.082       .  S
C224        C225   1.409       .  A
C224        N551   1.439       .  S
C225        C226   1.396       .  A
C225       Br604   1.917       .  S
C226        C227   1.401       .  A
C226        H231   1.084       .  S
C227        C228   1.408       .  A
C228       Br229   1.917       .  S
Br232       C597   1.917       .  S
C233        C234   1.399       .  A
C233        C238   1.396       .  A
C233        H240   1.084       .  S
C234        C235   1.407       .  A
C235        C236   1.397       .  A
C235       Br242   1.918       .  S
C236        C237   1.401       .  A
C236        H241   1.083       .  S
C237        C238   1.410       .  A
C238       Br239   1.918       .  S
C243        C244   1.405       .  A
C243        C248   1.401   1_545  A
C243        H250   1.083       .  S
C244        C245   1.407       .  A
C244        C473   1.486       .  S
C245        C246   1.396   1_545  A
C245       Br624   1.917       .  S
C246        C247   1.401       .  A
C246        H251   1.082       .  S
C247        C248   1.405       .  A
C248       Br249   1.915       .  S
Br252       C617   1.919       .  S
C253        C254   1.402       .  A
C253        C258   1.398   1_545  A
C253        H260   1.083       .  S
C254        C255   1.408       .  A
C255        C256   1.398   1_545  A
C255       Br262   1.918       .  S
C256        C257   1.401       .  A
C256        H261   1.084       .  S
C257        C258   1.407       .  A
C258       Br259   1.918       .  S
C263        C264   1.402       .  A
C263        C268   1.398       .  A
C263        H270   1.083       .  S
C264        C265   1.407       .  A
C265        C266   1.398       .  A
C265       Br272   1.918       .  S
C266        C267   1.403       .  A
C266        H271   1.083       .  S
C267        C268   1.408       .  A
C268       Br269   1.917       .  S
C273        C274   1.403       .  A
C273        C650   1.398       .  A
C273        H280   1.083       .  S
C274        C647   1.408       .  A
C275        C276   1.397       .  A
C275        C646   1.409       .  A
C275       Br282   1.919       .  S
C276        C277   1.401       .  A
C276        H281   1.083       .  S
C277        C278   1.405       .  A
C278        C645   1.399       .  A
C278       Br279   1.914       .  S
C283        C284   1.409       .  A
C283        C288   1.403       .  A
C283        H662   1.083       .  S
C284        C285   1.417       .  A
C285        C286   1.399       .  A
C285       Br292   1.919       .  S
C286        C287   1.399       .  A
C286        H291   1.084       .  S
C287        C288   1.406       .  A
C288       Br661   1.917       .  S
Br289       C660   1.916       .  S
H290        C655   1.083       .  S
C293        C294   1.397       .  A
C293        C298   1.396       .  A
C293        H300   1.084       .  S
C294        C667   1.402       .  A
C295        C296   1.404       .  A
C295        C666   1.405       .  A
C295       Br302   1.915       .  S
C296        C669   1.408       .  A
C296        H301   1.083       .  S
C297        C298   1.418       .  A
C297        C668   1.408       .  A
C298       Br299   1.921       .  S
C303        C304   1.403       .  A
C303        C308   1.395       .  A
C303        H310   1.081       .  S
C304        C305   1.408       .  A
C305        C306   1.397       .  A
C305       Br312   1.919   1_455  S
C306        C307   1.402       .  A
C306        H311   1.083       .  S
C307        C308   1.405       .  A
C308       Br309   1.917       .  S
C313        C314   1.402   1_455  A
C313        C318   1.397       .  A
C313        H320   1.083   1_455  S
C314        C315   1.406   1_655  A
C314        N407   1.436   1_554  S
C315        C316   1.402       .  A
C315       Br322   1.913   1_455  S
C316        C317   1.403       .  A
C316        H321   1.083       .  S
C317        C318   1.407       .  A
C318       Br319   1.918       .  S
C323        C328   1.397       .  A
C323        C696   1.399       .  A
C323        H330   1.084   1_554  S
C324        C695   1.400       .  A
C324        C697   1.401       .  A
C325        C326   1.401       .  A
C325        C696   1.401       .  A
C325       Br704   1.917       .  S
C326        C327   1.411       .  A
C326        H331   1.083       .  S
C327        C328   1.419       .  A
C328       Br329   1.920   1_554  S
Br332       C697   1.916       .  S
C333        C334   1.400       .  A
C333        C338   1.396       .  A
C333        H340   1.084       .  S
C334        C335   1.408       .  A
C335        C336   1.397       .  A
C335       Br342   1.919       .  S
C336        C337   1.401       .  A
C336        H341   1.083       .  S
C337        C338   1.409       .  A
C338       Br339   1.917       .  S
C343        C344   1.400       .  A
C343        C348   1.396       .  A
C343        H350   1.084       .  S
C344        C345   1.409       .  A
C345        C346   1.403       .  A
C345       Br352   1.916       .  S
C346        C347   1.402       .  A
C346        H351   1.082       .  S
C347        C348   1.409       .  A
C347        N414   1.438       .  S
C348       Br349   1.917       .  S
C353        C354   1.403       .  A
C353        C358   1.396       .  A
C353        H360   1.084       .  S
C354        C355   1.407       .  A
C355        C356   1.397       .  A
C355       Br362   1.917       .  S
C356        C357   1.403       .  A
C356        H361   1.084       .  S
C357        C358   1.404       .  A
C358       Br359   1.917       .  S
C363        C364   1.402       .  A
C363        C368   1.405       .  A
C363        H370   1.083       .  S
C364        C365   1.409       .  A
C365        C366   1.395       .  A
C365       Br372   1.918       .  S
C366        C367   1.401       .  A
C366        H371   1.084       .  S
C367        C368   1.412       .  A
C368       Br369   1.916       .  S
N373        C378   1.356       .  A
N373        C377   1.354       .  A
N373        H405   1.036       .  S
N374        C381   1.351       .  A
N374        C382   1.354       .  A
N375        C380   1.352       .  A
N375        C379   1.355       .  A
N375        H406   1.034       .  S
N376        C383   1.354       .  A
N376        C384   1.352       .  A
C377        C385   1.387       .  A
C377        C393   1.417       .  A
C378        C394   1.420       .  A
C378        C386   1.388       .  A
C379        C387   1.389   1_556  A
C379        C396   1.420       .  A
C380        C395   1.416       .  A
C380        C388   1.387   1_556  A
C381        C393   1.417       .  A
C381        C389   1.388       .  A
C382        C396   1.417       .  A
C382        C390   1.386       .  A
C383        C391   1.385       .  A
C383        C394   1.416       .  A
C384        C392   1.388       .  A
C384        C395   1.419       .  A
C385        C386   1.373       .  A
C385        H397   1.082       .  S
C386        H398   1.082       .  S
C387        C388   1.372       .  A
C387        H399   1.082       .  S
C388        H400   1.082       .  S
C389        C390   1.370       .  A
C389        H401   1.082       .  S
C390        H402   1.082       .  S
C391        C392   1.371       .  A
C391        H403   1.082       .  S
C392        H404   1.082       .  S
C393        C706   1.483       .  S
C394        C739   1.494       .  S
C395        C726   1.483       .  S
C396        C716   1.492   1_556  S
N407        C411   1.353       .  A
N407        C408   1.353       .  A
C408        C409   1.382       .  A
C408        C696   1.471   1_556  S
C409        C410   1.373       .  A
C409        H412   1.082       .  S
C410        C411   1.381       .  A
C410        H413   1.082       .  S
C411        C676   1.472   1_655  S
N414        C418   1.355       .  A
N414        C415   1.355       .  A
C415        C416   1.383       .  A
C415        C666   1.475       .  S
C416        C417   1.374       .  A
C416        H419   1.082       .  S
C417        C418   1.379       .  A
C417        H420   1.082       .  S
C418        C709   1.473       .  S
N421        C425   1.342       .  A
N421        N422   1.320       .  A
N421       Cu429   2.069       .  S
N422        C423   1.346       .  A
N422       Cu428   2.077       .  S
C423        C424   1.390       .  A
C423        H426   1.079       .  S
C424        C425   1.387       .  A
C424        C699   1.489       .  S
C425        H427   1.082       .  S
Cu429       N439   2.068       .  S
Cu430       N438   2.091       .  S
N431        C435   1.343       .  A
N431        N432   1.322       .  A
N432        C433   1.346       .  A
C433        C434   1.388       .  A
C433        H436   1.080       .  S
C434        C435   1.385       .  A
C434        C656   1.487       .  S
C435        H437   1.082       .  S
N438        C442   1.348       .  A
N438        N439   1.322       .  A
N439        C440   1.343       .  A
C440        C441   1.384       .  A
C440        H443   1.081       .  S
C441        C442   1.389       .  A
C441        C669   1.486       .  S
C442        H444   1.082       .  S
N445        C449   1.352       .  A
N445        C446   1.355       .  A
N445        C649   1.435       .  S
C446        C447   1.383       .  A
C446        C659   1.478       .  S
C447        C448   1.377       .  A
C447        H450   1.082       .  S
C448        C449   1.381       .  A
C448        H451   1.082       .  S
C449        C636   1.472       .  S
N452        C457   1.354       .  A
N452        C456   1.354       .  A
N452        H484   1.032       .  S
N453        C460   1.352       .  A
N453        C461   1.352       .  A
N454        C459   1.352       .  A
N454        C458   1.353       .  A
N454        H485   1.033       .  S
N455        C462   1.352       .  A
N455        C463   1.352       .  A
C456        C472   1.420       .  A
C457        C473   1.417       .  A
C458        C466   1.387       .  A
C458        C475   1.416       .  A
C459        C474   1.416       .  A
C459        C467   1.388       .  A
C460        C472   1.418       .  A
C460        C468   1.388       .  A
C461        C475   1.416       .  A
C461        C469   1.386       .  A
C462        C470   1.386       .  A
C462        C473   1.415       .  A
C463        C471   1.388       .  A
C463        C474   1.417       .  A
C464        C465   1.374       .  A
C464        H476   1.082       .  S
C465        H477   1.082       .  S
C466        C467   1.374       .  A
C466        H478   1.083       .  S
C467        H479   1.082       .  S
C468        C469   1.370       .  A
C468        H480   1.082       .  S
C469        H481   1.082       .  S
C470        C471   1.370       .  A
C470        H482   1.082   1_545  S
C471        H483   1.082   1_545  S
C472        C646   1.486       .  S
C474        C626   1.484       .  S
C475        C639   1.484       .  S
N486        C491   1.353       .  A
N486        C490   1.354       .  A
N486        H518   1.033       .  S
N487        C494   1.353       .  A
N487        C495   1.351       .  A
N488        C493   1.354       .  A
N488        C492   1.353       .  A
N488        H519   1.033       .  S
N489        C496   1.351       .  A
N489        C497   1.353       .  A
C490        C498   1.388       .  A
C490        C506   1.419       .  A
C491        C507   1.417       .  A
C491        C499   1.387       .  A
C492        C500   1.386       .  A
C492        C509   1.415       .  A
C493        C508   1.420       .  A
C493        C501   1.389       .  A
C494        C506   1.415       .  A
C494        C502   1.386       .  A
C495        C509   1.417       .  A
C495        C503   1.387       .  A
C496        C504   1.388       .  A
C496        C507   1.417       .  A
C497        C505   1.386       .  A
C497        C508   1.417       .  A
C498        C499   1.374       .  A
C498        H510   1.082       .  S
C499        H511   1.083       .  S
C500        C501   1.373       .  A
C500        H512   1.083       .  S
C501        H513   1.082       .  S
C502        C503   1.371       .  A
C502        H514   1.082       .  S
C503        H515   1.082       .  S
C504        C505   1.370       .  A
C504        H516   1.082       .  S
C505        H517   1.082       .  S
C506        C689   1.487       .  S
C507        C606   1.481       .  S
C508        C599   1.489       .  S
C509        C679   1.482       .  S
N520        C736   1.441       .  S
C521        C522   1.385       .  A
C522        C523   1.371       .  A
C522        H525   1.083       .  S
C523        C524   1.380       .  A
C523        H526   1.082   1_554  S
C524        C729   1.476       .  S
N527        C531   1.344       .  A
N527        N528   1.320       .  A
N527       Cu535   2.067       .  S
N528        C529   1.342       .  A
N528       Cu534   2.062       .  S
C529        C530   1.383       .  A
C529        H532   1.082       .  S
C530        C531   1.386       .  A
C530        C579   1.479       .  S
C531        H533   1.081       .  S
Cu535       N545   2.070       .  S
Cu536       N538   2.079   1_554  S
N537        C541   1.340       .  A
N537        N538   1.321       .  A
N538        C539   1.346       .  A
C539        C540   1.390       .  A
C539        H542   1.082       .  S
C540        C541   1.383       .  A
C540        C569   1.483       .  S
C541        H543   1.081       .  S
N544        C548   1.349       .  A
N544        N545   1.321       .  A
N545        C546   1.341       .  A
C546        C547   1.388       .  A
C546        H549   1.082       .  S
C547        C548   1.394       .  A
C547        C589   1.496       .  S
N551        C555   1.352       .  A
N551        C552   1.353       .  A
C552        C553   1.384       .  A
C552        C576   1.472       .  S
C553        C554   1.374       .  A
C553        H556   1.082       .  S
C554        C555   1.379       .  A
C554        H557   1.082       .  S
C555        C609   1.468       .  S
N558        C562   1.350       .  A
N558        C559   1.356       .  A
N558        C619   1.439       .  S
C559        C560   1.386       .  A
C559        C566   1.482       .  S
C560        C561   1.377       .  A
C560        H563   1.082       .  S
C561        C562   1.379       .  A
C561        H564   1.082       .  S
C562        C629   1.468       .  S
C565        C566   1.402       .  A
C565        C570   1.398       .  A
C565        H572   1.082       .  S
C566        C567   1.410       .  A
C567        C568   1.397       .  A
C567       Br574   1.921       .  S
C568        C569   1.405       .  A
C568        H573   1.083       .  S
C569        C570   1.413       .  A
C575        C576   1.401       .  A
C575        C580   1.395       .  A
C575        H582   1.084       .  S
C576        C577   1.404       .  A
C577        C578   1.400       .  A
C578        C579   1.407       .  A
C579        C580   1.414       .  A
C580       Br581   1.922       .  S
C585        C590   1.400       .  A
C585        H592   1.084       .  S
C586        C587   1.405       .  A
C587        C588   1.397       .  A
C587       Br594   1.919       .  S
C588        C589   1.409       .  A
C588        H593   1.083       .  S
C590       Br591   1.919       .  S
C595        C596   1.402       .  A
C595        C600   1.402   1_554  A
C595        H602   1.082       .  S
C596        C597   1.409       .  A
C597        C598   1.396   1_554  A
C598        C599   1.401       .  A
C598        H603   1.084       .  S
C599        C600   1.409       .  A
C600       Br601   1.917       .  S
C605        C606   1.399       .  A
C605        C610   1.395       .  A
C605        H612   1.084       .  S
C606        C607   1.408       .  A
C607        C608   1.397       .  A
C607       Br614   1.917       .  S
C608        C609   1.399       .  A
C608        H613   1.083       .  S
C609        C610   1.410       .  A
C610       Br611   1.919       .  S
C615        C616   1.405       .  A
C615        C620   1.400   1_545  A
C615        H622   1.083       .  S
C616        C617   1.408       .  A
C617        C618   1.397   1_545  A
C618        C619   1.402       .  A
C618        H623   1.081       .  S
C619        C620   1.406       .  A
C620       Br621   1.915       .  S
C625        C626   1.403       .  A
C625        C630   1.396   1_545  A
C625        H632   1.083       .  S
C626        C627   1.409       .  A
C627        C628   1.398   1_545  A
C627       Br634   1.918       .  S
C628        C629   1.400       .  A
C628        H633   1.084       .  S
C629        C630   1.405       .  A
C630       Br631   1.919       .  S
C635        C636   1.401       .  A
C635        C640   1.398       .  A
C635        H642   1.083       .  S
C636        C637   1.407       .  A
C637        C638   1.398       .  A
C637       Br644   1.918       .  S
C638        C639   1.402       .  A
C638        H643   1.083       .  S
C639        C640   1.407       .  A
C640       Br641   1.917       .  S
C645        C646   1.404       .  A
C645        H652   1.083       .  S
C647        C648   1.397       .  A
C647       Br654   1.920       .  S
C648        C649   1.402       .  A
C648        H653   1.083       .  S
C649        C650   1.405       .  A
C650       Br651   1.914       .  S
C655        C656   1.407       .  A
C655        C660   1.400       .  A
C656        C657   1.416       .  A
C657        C658   1.398       .  A
C657       Br664   1.920       .  S
C658        C659   1.401       .  A
C658        H663   1.084       .  S
C659        C660   1.406       .  A
C665        C666   1.399       .  A
C665        C670   1.396       .  A
C665        H672   1.084       .  S
C667        C668   1.399       .  A
C667       Br674   1.916       .  S
C668        H673   1.083       .  S
C669        C670   1.416       .  A
C670       Br671   1.921       .  S
C675        C676   1.402       .  A
C675        C680   1.395       .  A
C675        H682   1.081       .  S
C676        C677   1.406       .  A
C677        C678   1.399       .  A
C677       Br684   1.917       .  S
C678        C679   1.403       .  A
C678        H683   1.083       .  S
C679        C680   1.405       .  A
C680       Br681   1.918       .  S
C685        C686   1.404   1_455  A
C685        C690   1.397       .  A
C685        H692   1.083   1_455  S
C686        C687   1.409   1_655  A
C687        C688   1.402       .  A
C687       Br694   1.913   1_455  S
C688        C689   1.403       .  A
C688        H693   1.083       .  S
C689        C690   1.407       .  A
C690       Br691   1.919       .  S
C695        C700   1.397       .  A
C695        H702   1.084       .  S
C697        C698   1.401       .  A
C698        C699   1.410       .  A
C698        H703   1.083       .  S
C699        C700   1.417       .  A
C700       Br701   1.920       .  S
C705        C706   1.401       .  A
C705        C710   1.399       .  A
C705        H712   1.083       .  S
C706        C707   1.407       .  A
C707        C708   1.397       .  A
C707       Br714   1.919       .  S
C708        C709   1.401       .  A
C708        H713   1.083       .  S
C709        C710   1.410       .  A
C710       Br711   1.918       .  S
C715        C716   1.404       .  A
C715        C720   1.397       .  A
C715        H722   1.083       .  S
C716        C717   1.410       .  A
C717        C718   1.402       .  A
C717       Br724   1.917       .  S
C718        C719   1.402       .  A
C718        H723   1.082       .  S
C719        C720   1.407       .  A
C720       Br721   1.916       .  S
C725        C726   1.401       .  A
C725        C730   1.395   1_556  A
C725        H732   1.084       .  S
C726        C727   1.406   1_556  A
C727        C728   1.399       .  A
C727       Br734   1.917       .  S
C728        C729   1.406       .  A
C728        H733   1.082       .  S
C729        C730   1.408       .  A
C730       Br731   1.918       .  S
C735        C736   1.404       .  A
C735        C740   1.406       .  A
C735        H742   1.082       .  S
C736        C737   1.411       .  A
C737        C738   1.396       .  A
C737       Br744   1.917       .  S
C738        C739   1.400       .  A
C738        H743   1.084       .  S
C739        C740   1.410       .  A
C740       Br741   1.916       .  S
