geometry optimzed in LAMMPS
_audit_creation_date              2020-12-01 
_audit_creation_method            'lammps2cif' 
_symmetry_space_group_name_H-M    'P1' 
_symmetry_Int_Tables_number       1 
_symmetry_cell_setting            triclinic 
loop_ 
_symmetry_equiv_pos_as_xyz 
  x,y,z 
_cell_length_a                    56.07083014 
_cell_length_b                    56.246029659735385 
_cell_length_c                    46.70554920910704 
_cell_angle_alpha                 91.95776729860732 
_cell_angle_beta                  89.25295097747703 
_cell_angle_gamma                 122.10005604284045 
loop_ 
_atom_site_label 
_atom_site_type_symbol 
_atom_site_fract_x 
_atom_site_fract_y 
_atom_site_fract_z 
_atom_site_charge 
C1          C  0.34963002  0.15463310  0.98332748     0.04000
C2          C  0.32057750  0.13869960  0.98924539    -0.12200
C3          C  0.30385627  0.15033323  0.98707437     0.01500
C4          C  0.31713630  0.17919651  0.98239303    -0.10700
C5          C  0.34627026  0.19578829  0.97833946     0.04000
C6          C  0.36221997  0.18327326  0.97788864    -0.10100
H7          H  0.31073176  0.11686069  0.99452602     0.09600
H8          H  0.30474016  0.18864270  0.98031928     0.07100
H9          H  0.38428971  0.19589345  0.97244489     0.07000
C10         C  0.34658081  0.15149671  0.07408304     0.04000
C11         C  0.36154590  0.18078867  0.07159798    -0.12200
C12         C  0.34734544  0.19473789  0.06716430     0.01500
C13         C  0.31788750  0.17879852  0.06443022    -0.10700
C14         C  0.30254743  0.14972305  0.06814068     0.04000
C15         C  0.31703178  0.13603260  0.07226308    -0.10100
H16         H  0.38413337  0.19278004  0.07491914     0.09600
H17         H  0.30662787  0.18919404  0.06067780     0.07100
H18         H  0.30531136  0.11356114  0.07513633     0.07000
C19         C  0.14001622  0.34913286  0.31327085     0.04000
C20         C  0.16952764  0.36406933  0.31599386    -0.12200
C21         C  0.18395312  0.34987168  0.31588286     0.01500
C22         C  0.16856330  0.32043490  0.31365846    -0.10700
C23         C  0.13911228  0.30513743  0.31076462     0.04000
C24         C  0.12530837  0.31983773  0.30914694    -0.10100
H25         H  0.18128065  0.38666673  0.31933715     0.09600
H26         H  0.17946942  0.30950603  0.31619434     0.07100
H27         H  0.10272079  0.30823263  0.30600398     0.07000
C28         C  0.14348642  0.35507083  0.22403069     0.04000
C29         C  0.17313133  0.37019903  0.22588602    -0.12200
C30         C  0.18742997  0.35646233  0.23100643     0.01500
C31         C  0.17193198  0.32730332  0.23394313    -0.10700
C32         C  0.14256113  0.31158492  0.23099059     0.04000
C33         C  0.12844126  0.32568229  0.22693343    -0.10100
H34         H  0.18532211  0.39236598  0.22157608     0.09600
H35         H  0.18294314  0.31660318  0.23744541     0.07100
H36         H  0.10575164  0.31354959  0.22477087     0.07000
C37         C  0.04370815  0.45529453  0.35809118     0.43300
N38         N  0.01184763  0.46538640  0.36314632     0.02200
C39         C  0.03582166  0.09603822  0.39963534    -0.05700
H40         H  0.07645609  0.06241411  0.47503283     0.07700
C41         C  0.46872074  0.47877567  0.48868597    -0.06000
Co42       Co  0.04063045  0.02754366  0.37268358     0.74200
N43         N  0.05655606  0.04551710  0.43394368    -0.25200
Co44       Co  0.01891111  0.04438474  0.43557182     0.74100
C45         C  0.49264340  0.49677578  0.00745541     0.43400
N46         N  0.45006893  0.44242900  0.42167196     0.01800
N47         N  0.50468284  0.01721433  0.46919651     0.01900
N48         N  0.05009815  0.08512649  0.35842376    -0.46000
H49         H  0.07913735  0.50221562  0.36218306     0.07700
N50         N  0.06493573  0.03927987  0.40991648     0.02200
N51         N  0.48122443  0.04309138  0.43602110     0.02000
C52         C  0.45042337  0.05420551  0.44116525     0.43600
N53         N  0.45935291  0.43655958  0.39802655    -0.24700
C54         C  0.02090737  0.02696980  0.31048499    -0.05600
N55         N  0.01558324  0.44419699  0.35851167    -0.45800
N56         N  0.47832265  0.06481451  0.44012235    -0.46000
C57         C  0.49720388  0.00702417  0.29224449     0.43300
N58         N  0.04066255  0.06469292  0.37696087     0.02200
N59         N  0.43521080  0.46162152  0.36488123    -0.24700
N60         N  0.03583385  0.48983657  0.36536807    -0.25200
N61         N  0.42678286  0.46850502  0.38850200     0.01800
H62         H  0.41487769  0.44338542  0.32407592     0.07700
H63         H  0.41384470  0.00790589  0.43787096     0.07800
N64         N  0.03248361  0.07078436  0.40121551    -0.25200
N65         N  0.47463435  0.49106466  0.46326552    -0.24800
N66         N  0.48788118  0.49115949  0.33022086     0.02200
C67         C  0.09946611  0.05317056  0.43916339     0.43600
C68         C  0.45626419  0.41141387  0.40030909    -0.06100
N69         N  0.45691400  0.01890683  0.43437415    -0.24800
H70         H  0.44942262  0.45955900  0.49405615     0.07800
N71         N  0.09054889  0.04382900  0.41201709    -0.46100
H72         H  0.46098569  0.40057546  0.38382526     0.07700
C73         C  0.39234065  0.45396854  0.35909872     0.43400
C74         C  0.05715854  0.48568287  0.36251060    -0.05600
Co75       Co  0.47330764  0.46320878  0.36365088     0.73800
N76         N  0.43991714  0.42202230  0.44022551    -0.45800
C77         C  0.04765979  0.10566232  0.37131536     0.43700
N78         N  0.47673166  0.48588584  0.30423579    -0.45800
Co79       Co  0.45027420  0.47946939  0.42616998     0.73900
C80         C  0.43608493  0.02376263  0.43743775    -0.06100
C81         C  0.07690195  0.05442716  0.45377968    -0.05600
N82         N  0.01547667  0.01497107  0.33603005    -0.25200
N83         N  0.01615906  0.02239755  0.49513766    -0.45900
H84         H  0.03098279  0.10632761  0.41661340     0.07700
C85         C  0.41468428  0.45192981  0.34510882    -0.06100
Cl86       Cl  0.49807839  0.00417424  0.40177790    -0.49100
C87         C  0.44358596  0.40199051  0.42836088     0.43500
H88         H  0.03993423  0.04631952  0.30486767     0.07700
N89         N  0.40118024  0.46399177  0.38605277    -0.45800
C90         C  0.09744027  0.04993810  0.11380281     0.43300
N91         N  0.05709154  0.04382319  0.12332738     0.02200
C92         C  0.47252513  0.48388354  0.23939170    -0.05700
H93         H  0.99198655  0.41737826  0.17893258     0.07700
C94         C  0.43925381  0.42384944  0.09677860    -0.06000
Co95       Co  0.03777849  0.02320138  0.18239165     0.74200
N96         N  0.00603492  0.46115970  0.17741627    -0.25200
Co97       Co  0.46935489  0.46194867  0.17706785     0.74100
C98         C  0.44068156  0.40140896  0.11018749     0.43400
N99         N  0.47840775  0.49517778  0.08131259     0.01800
N100        N  0.45539098  0.43646978  0.14003949     0.01900
N101        N  0.01813265  0.02261962  0.24417790    -0.46000
H102        H  0.09975109  0.03367664  0.15770494     0.07700
N103        N  0.03121744  0.48443187  0.17759683     0.02200
N104        N  0.43301646  0.46369079  0.17604713     0.02000
C105        C  0.39259458  0.45808362  0.18483332     0.43600
N106        N  0.00690810  0.01948297  0.08536804    -0.24700
C107        C  0.05083969  0.08260804  0.20286310    -0.05600
N108        N  0.07703785  0.05329128  0.10364843    -0.45800
N109        N  0.41295913  0.45486103  0.19567465    -0.46000
C110        C  0.04877723  0.10480002  0.18999701     0.43300
N111        N  0.01129900  0.01102450  0.21801489     0.02200
N112        N  0.48473355  0.04661104  0.12073214    -0.24700
N113        N  0.06339586  0.03506448  0.14619578    -0.25200
N114        N  0.45960360  0.02335704  0.11972685     0.01800
H115        H  0.49897607  0.09035859  0.11818768     0.07700
H116        H  0.39115305  0.47380189  0.14019375     0.07800
N117        N  0.48408715  0.48814611  0.21337692    -0.25200
N118        N  0.44878066  0.44456504  0.11690683    -0.24800
N119        N  0.03440007  0.07035061  0.15962230     0.02200
C120        C  0.03941900  0.45130471  0.17917309     0.43600
C121        C  0.01884508  0.02328907  0.05955184    -0.06100
N122        N  0.42677599  0.47195064  0.15276374    -0.24800
H123        H  0.43177850  0.42449910  0.07580079     0.07800
N124        N  0.05180071  0.47949342  0.17879769    -0.46100
H125        H  0.03882988  0.04135117  0.05346582     0.07700
C126        C  0.45150134  0.05640102  0.11641928     0.43400
C127        C  0.08846949  0.03785452  0.14208991    -0.05600
Co128      Co  0.02105426  0.04555217  0.12202038     0.73800
N129        N  0.47178760  0.48251676  0.05566089    -0.45800
C130        C  0.49596610  0.00623975  0.26086495     0.43700
N131        N  0.03866892  0.09578180  0.16314220    -0.45800
Co132      Co  0.45209100  0.48332176  0.11661682     0.73900
C133        C  0.40185605  0.46943870  0.15630966    -0.06100
C134        C  0.00903561  0.43911713  0.17836642    -0.05600
N135        N  0.04126265  0.06208296  0.18252382    -0.25200
N136        N  0.45077367  0.41087347  0.13700743    -0.45900
H137        H  0.45270661  0.46562939  0.24550049     0.07700
C138        C  0.48184008  0.06866418  0.11886101    -0.06100
Cl139      Cl  0.49639376  0.00366799  0.15090073    -0.49100
C140        C  0.49396782  0.49843239  0.03870321     0.43500
H141        H  0.05855817  0.08213975  0.22380744     0.07700
N142        N  0.43914042  0.02824693  0.11697423    -0.45800
C143        C  0.06025107  0.17719205  0.20007464    -0.27400
C144        C  0.08439290  0.19074774  0.21746063     0.06300
C145        C  0.09552796  0.17537435  0.22764418     0.25900
C146        C  0.08294294  0.14689394  0.21992417    -0.11800
C147        C  0.05964212  0.13366089  0.20124950    -0.25800
C148        C  0.04808696  0.14893902  0.19175716     0.36700
C149        C  0.09945471  0.22146082  0.22227117     0.06300
F150        F  0.11896219  0.18813134  0.24444041    -0.19600
H151        H  0.09225595  0.13558706  0.22742959     0.16100
F152        F  0.02529882  0.13668000  0.17406860    -0.23300
H153        H  0.05156212  0.18885633  0.19193611     0.17900
C154        C  0.12517781  0.23873250  0.20854646     0.25900
C155        C  0.13895109  0.26785412  0.21173222    -0.11800
C156        C  0.12739278  0.28041880  0.22866835    -0.25800
C157        C  0.10138395  0.26300590  0.24221443     0.36800
C158        C  0.08758524  0.23372375  0.23902056    -0.27500
F159        F  0.13646593  0.22738692  0.19121295    -0.19600
H160        H  0.15848462  0.28066728  0.20033244     0.16100
F161        F  0.08953954  0.27417020  0.25889802    -0.23300
H162        H  0.06763313  0.22057967  0.24960020     0.17900
C163        C  0.26527422  0.41176907  0.24199566    -0.27400
C164        C  0.27755809  0.40116234  0.22340998     0.06300
C165        C  0.26035612  0.37532363  0.20881323     0.25900
C166        C  0.23121105  0.36078419  0.21191935    -0.11800
C167        C  0.21860119  0.37174633  0.22958777    -0.25800
C168        C  0.23591470  0.39721859  0.24502483     0.36700
C169        C  0.30758611  0.41849600  0.21579201     0.06300
F170        F  0.27177921  0.36472469  0.19063083    -0.19600
H171        H  0.21837813  0.34132454  0.19969527     0.16100
F172        F  0.22446303  0.40793391  0.26298669    -0.23300
H173        H  0.27832861  0.43174277  0.25329306     0.17900
C174        C  0.31477751  0.43054429  0.18883592     0.25900
C175        C  0.34256945  0.44428788  0.17955228    -0.11800
C176        C  0.36385970  0.44603218  0.19677440    -0.25800
C177        C  0.35679709  0.43479644  0.22436859     0.36800
C178        C  0.32877150  0.42116402  0.23380123    -0.27500
F179        F  0.29460879  0.42820190  0.17106075    -0.19600
H180        H  0.34702704  0.45270125  0.15835197     0.16100
F181        F  0.37673326  0.43641596  0.24194061    -0.23300
H182        H  0.32344655  0.41189814  0.25468585     0.17900
C183        C  0.12235082  0.40932129  0.22064381    -0.27400
C184        C  0.09829197  0.39522573  0.20309416     0.06300
C185        C  0.08955320  0.36826434  0.19197124     0.25900
C186        C  0.10437936  0.35556654  0.19874304    -0.11800
C187        C  0.12826289  0.36935239  0.21681009    -0.25800
C188        C  0.13730071  0.39672239  0.22734130     0.36700
C189        C  0.08289332  0.40908962  0.19606331     0.06300
F190        F  0.06719242  0.35451422  0.17379745    -0.19600
H191        H  0.09739581  0.33506913  0.18919913     0.16100
F192        F  0.16043763  0.41145190  0.24427771    -0.23300
H193        H  0.12951408  0.43016982  0.22937383     0.17900
C194        C  0.05363701  0.39544878  0.20001932     0.25900
C195        C  0.03956284  0.40904825  0.19383409    -0.11800
C196        C  0.05437047  0.43659698  0.18393019    -0.25800
C197        C  0.08359827  0.45014349  0.17972749     0.36800
C198        C  0.09765481  0.43647977  0.18579820    -0.27500
F199        F  0.03879733  0.36939404  0.21091609    -0.19600
H200        H  0.01713556  0.39817906  0.19760927     0.16100
F201        F  0.09860998  0.47651045  0.16959901    -0.23300
H202        H  0.12015815  0.44728691  0.18238883     0.17900
C203        C  0.07772292  0.18381355  0.36757962    -0.27400
C204        C  0.08140857  0.18797092  0.33801068     0.06300
C205        C  0.07398125  0.16484191  0.31940005     0.25900
C206        C  0.06297386  0.13808231  0.33034538    -0.11800
C207        C  0.05900225  0.13394460  0.35995570    -0.25800
C208        C  0.06657656  0.15720794  0.37850981     0.36700
C209        C  0.09378771  0.21674715  0.32736717     0.06300
F210        F  0.07681624  0.16799371  0.29067418    -0.19600
H211        H  0.05731586  0.12054621  0.31565134     0.16100
F212        F  0.06437438  0.15476035  0.40734874    -0.23300
H213        H  0.08402321  0.20140702  0.38241676     0.17900
C214        C  0.08392797  0.23374936  0.33765063     0.25900
C215        C  0.09820977  0.26207841  0.33122783    -0.11800
C216        C  0.12243370  0.27414942  0.31403693    -0.25800
C217        C  0.13130993  0.25670246  0.30227100     0.36800
C218        C  0.11711934  0.22828581  0.30900154    -0.27500
F219        F  0.06082981  0.22312665  0.35459988    -0.19600
H220        H  0.09087089  0.27482175  0.34085575     0.16100
F221        F  0.15377505  0.26707783  0.28448800    -0.23300
H222        H  0.12506714  0.21558441  0.30077197     0.17900
C223        C  0.26157764  0.37577779  0.30878147    -0.27400
C224        C  0.27338208  0.39481402  0.33233969     0.06300
C225        C  0.25535295  0.39884875  0.35035586     0.25900
C226        C  0.22649568  0.38466160  0.34446048    -0.11800
C227        C  0.21478331  0.36550692  0.32109875    -0.25800
C228        C  0.23255374  0.36080262  0.30357400     0.36700
C229        C  0.30430284  0.41025175  0.33802882     0.06300
F230        F  0.26537175  0.41576655  0.37425305    -0.19600
H231        H  0.21309853  0.38803551  0.35871281     0.16100
F232        F  0.22193998  0.34202372  0.28114686    -0.23300
H233        H  0.27483916  0.37255908  0.29418742     0.17900
C234        C  0.31932984  0.39660964  0.33539386     0.25900
C235        C  0.34829385  0.41137927  0.34095229    -0.11800
C236        C  0.36262759  0.43964131  0.35019669    -0.25800
C237        C  0.34782696  0.45331217  0.35304209     0.36800
C238        C  0.31908358  0.43889815  0.34643887    -0.27500
F239        F  0.30589659  0.36870880  0.32877988    -0.19600
H240        H  0.35931501  0.40036296  0.33927964     0.16100
F241        F  0.36123622  0.48066847  0.36200841    -0.23300
H242        H  0.30836894  0.45020195  0.34800876     0.17900
C243        C  0.08551735  0.36605773  0.33824022    -0.27400
C244        C  0.09616701  0.39269804  0.32709698     0.06300
C245        C  0.12091185  0.40463490  0.31066671     0.25900
C246        C  0.13490462  0.39034949  0.30612013    -0.11800
C247        C  0.12432756  0.36368207  0.31726954    -0.25800
C248        C  0.09937209  0.35170250  0.33353923     0.37900
C249        C  0.08253862  0.40865358  0.33451810     0.06300
F250        F  0.13160665  0.43014702  0.29905551    -0.19600
H251        H  0.15426892  0.40029410  0.29414448     0.16100
F252        F  0.08918641  0.32689236  0.34650418    -0.23300
H253        H  0.06696923  0.35676275  0.35161514     0.17900
C254        C  0.05325816  0.39627995  0.33175221     0.25900
C255        C  0.04081444  0.41147735  0.33976543    -0.11800
C256        C  0.05723797  0.43925765  0.35069988    -0.25800
C257        C  0.08647352  0.45137813  0.35392099     0.36800
C258        C  0.09886232  0.43621838  0.34582843    -0.27500
F259        F  0.03673763  0.36969428  0.32081823    -0.19600
H260        H  0.01828020  0.40154888  0.33708577     0.16100
F261        F  0.10321928  0.47760744  0.36550071    -0.23300
H262        H  0.12130938  0.44590346  0.34897603     0.17900
C263        C  0.36984435  0.10753741  0.10994285    -0.27400
C264        C  0.39283605  0.11263642  0.09289815     0.06300
C265        C  0.40028226  0.13030367  0.06952708     0.25900
C266        C  0.38514274  0.14287220  0.06366790    -0.11800
C267        C  0.36198870  0.13756083  0.08047819    -0.25800
C268        C  0.35449419  0.11983607  0.10382446     0.36700
C269        C  0.40820651  0.09865862  0.09917055     0.06300
F270        F  0.42165779  0.13481742  0.05191005    -0.19600
H271        H  0.39128961  0.15659323  0.04600394     0.16100
F272        F  0.33297352  0.11515895  0.12128372    -0.23300
H273        H  0.36392332  0.09416313  0.12815362     0.17900
C274        C  0.43766179  0.11403444  0.10237577     0.25900
C275        C  0.45163229  0.10024791  0.10823778    -0.11800
C276        C  0.43652096  0.07094479  0.11096644    -0.25800
C277        C  0.40701422  0.05568179  0.10794900     0.36800
C278        C  0.39309956  0.06948302  0.10219549    -0.27500
F279        F  0.45286926  0.14240631  0.10044904    -0.19600
H280        H  0.47430075  0.11262864  0.11059376     0.16100
F281        F  0.39147825  0.02738120  0.11038575    -0.23300
H282        H  0.37041227  0.05727812  0.09973536     0.17900
C283        C  0.40385220  0.33306430  0.06528653    -0.27400
C284        C  0.40705483  0.31533566  0.08299658     0.06300
C285        C  0.42265437  0.32628356  0.10846051     0.25900
C286        C  0.43419760  0.35448888  0.11652228    -0.11800
C287        C  0.43029568  0.37229986  0.09941761    -0.25800
C288        C  0.41543142  0.36137572  0.07327872     0.36700
C289        C  0.39144940  0.28484642  0.07675386     0.06300
F290        F  0.42577869  0.30937861  0.12604903    -0.19600
H291        H  0.44563224  0.36220311  0.13662819     0.16100
F292        F  0.41111899  0.37750799  0.05581780    -0.23300
H293        H  0.39162292  0.32473318  0.04568327     0.17900
C294        C  0.36442113  0.26784987  0.08799306     0.25900
C295        C  0.35027172  0.23874670  0.08446629    -0.11800
C296        C  0.36257346  0.22593822  0.06921759    -0.25800
C297        C  0.38947884  0.24318678  0.05719330     0.36800
C298        C  0.40382851  0.27245590  0.06113413    -0.27500
F299        F  0.35200627  0.27945315  0.10304190    -0.19600
H300        H  0.32987182  0.22619661  0.09441262     0.16100
F301        F  0.40173036  0.23187911  0.04136137    -0.23300
H302        H  0.42467123  0.28545484  0.05223194     0.17900
C303        C  0.16516303  0.09907377  0.07481408    -0.27400
C304        C  0.18224332  0.08928265  0.08333851     0.06300
C305        C  0.17078154  0.06541923  0.10007216     0.25900
C306        C  0.14286493  0.05219386  0.10915695    -0.11800
C307        C  0.12585387  0.06234120  0.10138291    -0.25800
C308        C  0.13700545  0.08550401  0.08339860     0.36700
C309        C  0.21266301  0.10546467  0.07738273     0.06300
F310        F  0.18705446  0.05578947  0.10879875    -0.19600
H311        H  0.13469945  0.03429479  0.12276516     0.16100
F312        F  0.12126627  0.09598272  0.07538066    -0.23300
H313        H  0.17385916  0.11759591  0.06201314     0.17900
C314        C  0.22472100  0.09486370  0.05845626     0.25900
C315        C  0.25402094  0.10919681  0.05543460    -0.11800
C316        C  0.27152201  0.13447774  0.07093310    -0.25800
C317        C  0.25924293  0.14499000  0.08984591     0.36800
C318        C  0.23006799  0.13063718  0.09285810    -0.27500
F319        F  0.20811897  0.07070069  0.04299301    -0.19600
H320        H  0.26304856  0.10075707  0.04081440     0.16100
F321        F  0.27553221  0.16845638  0.10644315    -0.23300
H322        H  0.22103707  0.13868660  0.10800258     0.17900
C323        C  0.40245294  0.07519167  0.47452438    -0.27400
C324        C  0.41289332  0.10155661  0.46279064     0.06300
C325        C  0.43677272  0.11299508  0.44517237     0.25900
C326        C  0.44930629  0.09764913  0.43861246    -0.11800
C327        C  0.43793749  0.07069060  0.44924534    -0.25800
C328        C  0.41478545  0.05978562  0.46777128     0.36700
C329        C  0.39754765  0.11597734  0.46752310     0.06300
F330        F  0.44710833  0.13833224  0.43328221    -0.19600
H331        H  0.46733733  0.10641671  0.42449904     0.16100
F332        F  0.40439580  0.03450320  0.47977923    -0.23300
H333        H  0.38443097  0.06637920  0.48863640     0.17900
C334        C  0.36885537  0.10205283  0.46052288     0.25900
C335        C  0.35427577  0.11563880  0.46446648    -0.11800
C336        C  0.36776556  0.14324826  0.47605491    -0.25800
C337        C  0.39668170  0.15716785  0.48310643     0.36800
C338        C  0.41136142  0.14359565  0.47871917    -0.27500
F339        F  0.35508726  0.07551762  0.44901078    -0.19600
H340        H  0.33244380  0.10456544  0.45776685     0.16100
F341        F  0.41056820  0.18331776  0.49551857    -0.23300
H342        H  0.43343905  0.15446466  0.48456534     0.17900
C343        C  0.37083097  0.27267166  0.98716900    -0.27400
C344        C  0.38991152  0.28649145  0.45949499     0.06300
C345        C  0.39081043  0.26797192  0.43901138     0.25900
C346        C  0.37728331  0.23937803  0.44420561    -0.11800
C347        C  0.36184897  0.22855357  0.46936690    -0.25800
C348        C  0.35659333  0.24387784  0.99185415     0.36700
C349        C  0.40470018  0.31702561  0.45428916     0.06300
F350        F  0.40412160  0.27731980  0.41361048    -0.19600
H351        H  0.37843225  0.22553374  0.42832420     0.16100
F352        F  0.33997666  0.23358170  0.01523418    -0.23300
H353        H  0.36886815  0.28618186  0.00278291     0.17900
C354        C  0.39155254  0.33220396  0.45981632     0.25900
C355        C  0.40501802  0.36039817  0.45266430    -0.11800
C356        C  0.43135805  0.37364277  0.43927690    -0.25800
C357        C  0.44494977  0.35892796  0.43468760     0.36800
C358        C  0.43190822  0.33102922  0.44257589    -0.27500
F359        F  0.36509971  0.31949061  0.47059077    -0.19600
H360        H  0.39420829  0.37145816  0.45623781     0.16100
F361        F  0.47083807  0.37151918  0.42256369    -0.23300
H362        H  0.44294423  0.32020388  0.43905048     0.17900
C363        C  0.23227026  0.09451157  0.46208218    -0.27400
C364        C  0.21587265  0.10443127  0.47380208     0.06300
C365        C  0.22888913  0.12881478  0.49161657     0.25900
C366        C  0.25803026  0.14378055  0.49612626    -0.11800
C367        C  0.27470179  0.13475348  0.48297410    -0.25800
C368        C  0.26135489  0.10954206  0.46629517     0.36700
C369        C  0.18581674  0.09047948  0.46540305     0.06300
F370        F  0.21376339  0.13912073  0.50328801    -0.19600
H371        H  0.26768706  0.16288479  0.50929922     0.16100
F372        F  0.27647921  0.10037982  0.45222590    -0.23300
H373        H  0.22263474  0.07556863  0.44863521     0.17900
C374        C  0.17791252  0.08446116  0.43632468     0.25900
C375        C  0.14975384  0.07178552  0.42827708    -0.11800
C376        C  0.12885334  0.06524975  0.44887166    -0.25800
C377        C  0.13667507  0.07115289  0.47801998     0.36800
C378        C  0.16492630  0.08354644  0.48613330    -0.27500
F379        F  0.19753523  0.09174330  0.41550793    -0.19600
H380        H  0.14443412  0.06773524  0.40569533     0.16100
F381        F  0.11716824  0.06468597  0.49874543    -0.23300
H382        H  0.16766416  0.08580517  0.01092056     0.17900
C383        C  0.35153089  0.15722784  0.47951415     0.04000
C384        C  0.32257044  0.14134290  0.48573081    -0.12200
C385        C  0.30591878  0.15303805  0.48391085     0.01500
C386        C  0.31911732  0.18191971  0.47949127    -0.10700
C387        C  0.34817731  0.19839846  0.47487002     0.04000
C388        C  0.36405083  0.18581934  0.47391061    -0.10100
H389        H  0.31261015  0.11944157  0.49083455     0.09600
H390        H  0.30667526  0.19137906  0.47795811     0.07100
H391        H  0.38601513  0.19838329  0.46804912     0.07000
C392        C  0.34578758  0.14961012  0.57072217     0.04000
C393        C  0.36099607  0.17897112  0.56896415    -0.12200
C394        C  0.34700741  0.19327090  0.56528225     0.01500
C395        C  0.31752480  0.17750202  0.56231958    -0.10700
C396        C  0.30191714  0.14828402  0.56541320     0.04000
C397        C  0.31625776  0.13437000  0.56908600    -0.10100
H398        H  0.38359228  0.19064728  0.57220579     0.09600
H399        H  0.30647373  0.18813140  0.55874468     0.07100
H400        H  0.30448477  0.11185461  0.57167335     0.07000
C401        C  0.13960461  0.34674100  0.81302642     0.04000
C402        C  0.16913842  0.36198479  0.81545469    -0.12200
C403        C  0.18382572  0.34803427  0.81518125     0.01500
C404        C  0.16865441  0.31858026  0.81300785    -0.10700
C405        C  0.13916824  0.30306267  0.81049432     0.04000
C406        C  0.12508002  0.31747925  0.80917956    -0.10100
H407        H  0.18065408  0.38460143  0.81860641     0.09600
H408        H  0.17975848  0.30781042  0.81527168     0.07100
H409        H  0.10240509  0.30570577  0.80664924     0.07000
C410        C  0.14441432  0.35626923  0.72115506     0.04000
C411        C  0.17394387  0.37148195  0.72327571    -0.12200
C412        C  0.18827886  0.35813975  0.72976229     0.01500
C413        C  0.17282512  0.32910302  0.73379550    -0.10700
C414        C  0.14341541  0.31310195  0.73051448     0.04000
C415        C  0.12931850  0.32699982  0.72490063    -0.10100
H416        H  0.18602080  0.39347439  0.71816742     0.09600
H417        H  0.18389365  0.31871353  0.73847829     0.07100
H418        H  0.10668629  0.31487267  0.72216450     0.07000
C419        C  0.04328788  0.45244644  0.85972377     0.43300
N420        N  0.01124450  0.46234485  0.86460663     0.02200
C421        C  0.03467206  0.09430171  0.89986899    -0.05700
H422        H  0.07452670  0.06053729  0.97525369     0.07700
C423        C  0.46857742  0.47695141  0.98949716    -0.06000
Co424      Co  0.03943973  0.02590226  0.87278895     0.74200
N425        N  0.05501947  0.04346462  0.93408672    -0.25200
Co426      Co  0.01735518  0.04229004  0.93559821     0.74100
C427        C  0.49249360  0.49830943  0.50705277     0.43400
N428        N  0.44929556  0.43968682  0.92288140     0.01800
N429        N  0.50291337  0.01439069  0.96882578     0.01900
N430        N  0.04933168  0.08344798  0.85886572    -0.46000
H431        H  0.07850339  0.49952348  0.86330139     0.07700
N432        N  0.06363765  0.03730715  0.91018211     0.02200
N433        N  0.47943110  0.04067739  0.93639743     0.02000
C434        C  0.44857126  0.05162441  0.94286072     0.43600
N435        N  0.45868658  0.43351730  0.89950595    -0.24700
C436        C  0.02013405  0.02661016  0.81088398    -0.05600
N437        N  0.01514021  0.44122985  0.86028778    -0.45800
N438        N  0.47648451  0.06230433  0.94128003    -0.46000
C439        C  0.49628788  0.00716711  0.79248594     0.43300
N440        N  0.03964837  0.06299443  0.87735294     0.02200
N441        N  0.43464436  0.45820448  0.86546078    -0.24700
N442        N  0.03515508  0.48690600  0.86651398    -0.25200
N443        N  0.42602132  0.46524217  0.88885236     0.01800
H444        H  0.41485330  0.44007156  0.82442102     0.07700
H445        H  0.41207334  0.00530093  0.93928168     0.07800
N446        N  0.03118531  0.06898069  0.90147661    -0.25200
N447        N  0.47408342  0.48886676  0.96388111    -0.24800
N448        N  0.48739570  0.48740513  0.83069677     0.02200
C449        C  0.09803559  0.05154554  0.93977893     0.43600
C450        C  0.45527143  0.40824896  0.90227006    -0.06100
N451        N  0.45512748  0.01647507  0.93474473    -0.24800
H452        H  0.44944190  0.45773432  0.99521898     0.07800
N453        N  0.08938881  0.04217516  0.91253445    -0.46100
H454        H  0.45989663  0.39708082  0.88609000     0.07700
C455        C  0.39197966  0.45081203  0.85888118     0.43400
C456        C  0.05658026  0.48287838  0.86377684    -0.05600
Co457      Co  0.47279492  0.45987215  0.86469020     0.73800
N458        N  0.43872345  0.41942563  0.94161921    -0.45800
C459        C  0.04682374  0.10393340  0.87164762     0.43700
N460        N  0.47641620  0.48186976  0.80457608    -0.45800
Co461      Co  0.44947905  0.47667769  0.92676253     0.73900
C462        C  0.43428500  0.02122639  0.93860073    -0.06100
C463        C  0.07521709  0.05253027  0.95408944    -0.05600
N464        N  0.01450111  0.01406063  0.83611180    -0.25200
N465        N  0.01470628  0.01991483  0.99466030    -0.45900
H466        H  0.02982170  0.10468648  0.91674293     0.07700
C467        C  0.41438561  0.44856453  0.84539661    -0.06100
Cl468      Cl  0.49640507  0.00209888  0.90151163    -0.49100
C469        C  0.44221463  0.39912832  0.93026975     0.43500
H470        H  0.03930339  0.04596856  0.80557151     0.07700
N471        N  0.40050978  0.46089594  0.88591357    -0.45800
C472        C  0.09796033  0.05101757  0.61456821     0.43300
N473        N  0.05784884  0.04535123  0.62452780     0.02200
C474        C  0.47222977  0.48054218  0.73920562    -0.05700
H475        H  0.99302908  0.41684785  0.67541759     0.07700
C476        C  0.43846646  0.42290258  0.59561782    -0.06000
Co477      Co  0.03842621  0.02442461  0.68343061     0.74200
N478        N  0.00613666  0.46044903  0.67577079    -0.25200
Co479      Co  0.46900848  0.46036969  0.67607226     0.74100
C480        C  0.44045225  0.40057770  0.60850919     0.43400
N481        N  0.47719473  0.49495575  0.58090710     0.01800
N482        N  0.45517341  0.43538909  0.63868010     0.01900
N483        N  0.01782424  0.02343079  0.74482911    -0.46000
H484        H  0.10048773  0.03487270  0.65850756     0.07700
N485        N  0.03106433  0.48402915  0.67629601     0.02200
N486        N  0.43251336  0.46183909  0.67569726     0.02000
C487        C  0.39306968  0.45771714  0.68607696     0.43600
N488        N  0.00789193  0.02050338  0.58624881    -0.24700
C489        C  0.05066158  0.08347352  0.70402826    -0.05600
N490        N  0.07751525  0.05439139  0.60456804    -0.45800
N491        N  0.41321186  0.45373313  0.69602991    -0.46000
C492        C  0.04837363  0.10559020  0.69130080     0.43300
N493        N  0.01154757  0.01175613  0.71869294     0.02200
N494        N  0.48468904  0.04672017  0.62152892    -0.24700
N495        N  0.06429059  0.03670620  0.64738796    -0.25200
N496        N  0.45982573  0.02312781  0.62026417     0.01800
H497        H  0.49809772  0.09014323  0.61785848     0.07700
H498        H  0.39057669  0.47343525  0.64188449     0.07800
N499        N  0.48353384  0.48579090  0.71300725    -0.25200
N500        N  0.44808116  0.44352688  0.61589808    -0.24800
N501        N  0.03418165  0.07116150  0.66079746     0.02200
C502        C  0.04022383  0.45153885  0.67589489     0.43600
C503        C  0.01983570  0.02514124  0.56037104    -0.06100
N504        N  0.42592352  0.47031194  0.65279080    -0.24800
H505        H  0.43069209  0.42344579  0.57475241     0.07800
N506        N  0.05206587  0.47966272  0.67653278    -0.46100
H507        H  0.03944318  0.04375819  0.55444710     0.07700
C508        C  0.45089696  0.05542395  0.61548849     0.43400
C509        C  0.08926781  0.03930879  0.64306649    -0.05600
Co510      Co  0.02137560  0.04635198  0.62304925     0.73800
N511        N  0.47099022  0.48281514  0.55498692    -0.45800
C512        C  0.49544917  0.00679856  0.76117728     0.43700
N513        N  0.03825018  0.09653652  0.66441283    -0.45800
Co514      Co  0.45082901  0.48215885  0.61633660     0.73900
C515        C  0.40149128  0.46863673  0.65733968    -0.06100
C516        C  0.00973987  0.43875188  0.67553746    -0.05600
N517        N  0.04123310  0.06300234  0.68364045    -0.25200
N518        N  0.45090491  0.40993135  0.63522103    -0.45900
H519        H  0.45272240  0.46182121  0.74513031     0.07700
C520        C  0.48125676  0.06834649  0.61881672    -0.06100
Cl521      Cl  0.49726738  0.00442521  0.65165795    -0.49100
C522        C  0.49323878  0.49943879  0.53833933     0.43500
H523        H  0.05853596  0.08306686  0.72490948     0.07700
N524        N  0.43904822  0.02737467  0.61647543    -0.45800
C525        C  0.06022836  0.17823645  0.70216626    -0.27400
C526        C  0.08459145  0.19172696  0.71929768     0.06300
C527        C  0.09563816  0.17612100  0.72910191     0.25900
C528        C  0.08289923  0.14765469  0.72116159    -0.11800
C529        C  0.05945582  0.13454140  0.70265431    -0.25800
C530        C  0.04789465  0.14996645  0.69363444     0.36700
C531        C  0.09996112  0.22257095  0.72416913     0.06300
F532        F  0.11912005  0.18861575  0.74581765    -0.19600
H533        H  0.09219839  0.13625152  0.72840762     0.16100
F534        F  0.02490609  0.13782296  0.67623113    -0.23300
H535        H  0.05151055  0.18997715  0.69432019     0.17900
C536        C  0.12682538  0.23954484  0.71243209     0.25900
C537        C  0.14068680  0.26872699  0.71495689    -0.11800
C538        C  0.12827072  0.28180278  0.72946352    -0.25800
C539        C  0.10136018  0.26469008  0.74151805     0.36800
C540        C  0.08733952  0.23532704  0.73872881    -0.27500
F541        F  0.13915607  0.22787370  0.69734920    -0.19600
H542        H  0.16095883  0.28114347  0.70471476     0.16100
F543        F  0.08872112  0.27619578  0.75626306    -0.23300
H544        H  0.06658665  0.22249311  0.74790208     0.17900
C545        C  0.26540275  0.41577861  0.73965454    -0.27400
C546        C  0.27852150  0.40448800  0.72346169     0.06300
C547        C  0.26213504  0.37769148  0.71044952     0.25900
C548        C  0.23290900  0.36255723  0.71318056    -0.11800
C549        C  0.21949574  0.37388599  0.72893600    -0.25800
C550        C  0.23606256  0.40057577  0.74250390     0.36700
C551        C  0.30894172  0.42144058  0.71769800     0.06300
F552        F  0.27436644  0.36673888  0.69399344    -0.19600
H553        H  0.22066110  0.34230874  0.70214577     0.16100
F554        F  0.22391562  0.41190662  0.75847835    -0.23300
H555        H  0.27787033  0.43650493  0.74968054     0.17900
C556        C  0.31904700  0.44156074  0.69649271     0.25900
C557        C  0.34692435  0.45439698  0.68744516    -0.11800
C558        C  0.36516330  0.44726103  0.69926593    -0.25800
C559        C  0.35542315  0.42833686  0.72184607     0.36800
C560        C  0.32737811  0.41535133  0.73077507    -0.27500
F561        F  0.30145744  0.44750649  0.68332060    -0.19600
H562        H  0.35386556  0.46921587  0.67043650     0.16100
F563        F  0.37242121  0.42120056  0.73424168    -0.23300
H564        H  0.31974625  0.39980543  0.74716185     0.17900
C565        C  0.12417820  0.41082326  0.71497483    -0.27400
C566        C  0.10095345  0.39691445  0.69635127     0.06300
C567        C  0.09252990  0.36999309  0.68533384     0.25900
C568        C  0.10670973  0.35701060  0.69346317    -0.11800
C569        C  0.12961363  0.37055713  0.71272310    -0.25800
C570        C  0.13843255  0.39792378  0.72309573     0.36700
C571        C  0.08519084  0.41033653  0.68931892     0.06300
F572        F  0.07088797  0.35643525  0.66629723    -0.19600
H573        H  0.09998329  0.33646272  0.68421481     0.16100
F574        F  0.16049278  0.41220029  0.74148742    -0.23300
H575        H  0.13095947  0.43157073  0.72374109     0.17900
C576        C  0.05600958  0.39625146  0.69381854     0.25900
C577        C  0.04146615  0.40953620  0.68863782    -0.11800
C578        C  0.05573710  0.43723425  0.67924409    -0.25800
C579        C  0.08490821  0.45124487  0.67434061     0.36800
C580        C  0.09945885  0.43785547  0.67940282    -0.27500
F581        F  0.04174660  0.37010951  0.70454280    -0.19600
H582        H  0.01912690  0.39833718  0.69295130     0.16100
F583        F  0.09937130  0.47781527  0.66467657    -0.23300
H584        H  0.12194248  0.44901738  0.67572297     0.17900
C585        C  0.07942617  0.18234416  0.86819310    -0.27400
C586        C  0.08216559  0.18631424  0.83855828     0.06300
C587        C  0.07339550  0.16299529  0.81981769     0.25900
C588        C  0.06191957  0.13618152  0.83071902    -0.11800
C589        C  0.05872126  0.13223585  0.86038836    -0.25800
C590        C  0.06768109  0.15566250  0.87907357     0.36700
C591        C  0.09448162  0.21501625  0.82792155     0.06300
F592        F  0.07523834  0.16601476  0.79105498    -0.19600
H593        H  0.05518632  0.11844665  0.81596786     0.16100
F594        F  0.06616296  0.15319311  0.90792481    -0.23300
H595        H  0.08674156  0.20009368  0.88306518     0.17900
C596        C  0.08508711  0.23218155  0.83888427     0.25900
C597        C  0.09915521  0.26038844  0.83218027    -0.11800
C598        C  0.12272848  0.27217943  0.81410016    -0.25800
C599        C  0.13124342  0.25462145  0.80184183     0.36800
C600        C  0.11720011  0.22626862  0.80878218    -0.27500
F601        F  0.06268443  0.22184190  0.85678262    -0.19600
H602        H  0.09221296  0.27328336  0.84227716     0.16100
F603        F  0.15327528  0.26486093  0.78350199    -0.23300
H604        H  0.12480397  0.21340560  0.80013202     0.17900
C605        C  0.26148495  0.37461252  0.80666141    -0.27400
C606        C  0.27348230  0.39334063  0.83041111     0.06300
C607        C  0.25561053  0.39710844  0.84895820     0.25900
C608        C  0.22665378  0.38284243  0.84347402    -0.11800
C609        C  0.21473868  0.36392762  0.81994538    -0.25800
C610        C  0.23240159  0.35961513  0.80181053     0.36700
C611        C  0.30440769  0.40850813  0.83596829     0.06300
F612        F  0.26590759  0.41378677  0.87299173    -0.19600
H613        H  0.21335151  0.38593695  0.85815690     0.16100
F614        F  0.22158540  0.34102484  0.77926466    -0.23300
H615        H  0.27463631  0.37156427  0.79174000     0.17900
C616        C  0.31910314  0.39452733  0.83344473     0.25900
C617        C  0.34794838  0.40885194  0.83960076    -0.11800
C618        C  0.36249151  0.43702465  0.84921401    -0.25800
C619        C  0.34808846  0.45113860  0.85151035     0.36800
C620        C  0.31944928  0.43712734  0.84446884    -0.27500
F621        F  0.30539676  0.36667875  0.82647582    -0.19600
H622        H  0.35867099  0.39753125  0.83814661     0.16100
F623        F  0.36177484  0.47851974  0.86042309    -0.23300
H624        H  0.30896180  0.44866364  0.84590070     0.17900
C625        C  0.08597674  0.36378890  0.84034364    -0.27400
C626        C  0.09518283  0.38948081  0.82757399     0.06300
C627        C  0.11845457  0.40050070  0.80902841     0.25900
C628        C  0.13263322  0.38643002  0.80419343    -0.11800
C629        C  0.12364312  0.36090222  0.81721435    -0.25800
C630        C  0.09995246  0.34960283  0.83528970     0.37900
C631        C  0.08168921  0.40550546  0.83533155     0.06300
F632        F  0.12749713  0.42488244  0.79560282    -0.19600
H633        H  0.15084625  0.39556019  0.79045893     0.16100
F634        F  0.09117461  0.32563584  0.84943099    -0.23300
H635        H  0.06852531  0.35516384  0.85516628     0.17900
C636        C  0.05223505  0.39261810  0.83501234     0.25900
C637        C  0.04000879  0.40795902  0.84328040    -0.11800
C638        C  0.05680464  0.43640055  0.85211618    -0.25800
C639        C  0.08627591  0.44906362  0.85292424     0.36800
C640        C  0.09844130  0.43375568  0.84452403    -0.27500
F641        F  0.03527752  0.36534965  0.82620385    -0.19600
H642        H  0.01729870  0.39756673  0.84248193     0.16100
F643        F  0.10356248  0.47605114  0.86226894    -0.23300
H644        H  0.12111002  0.44391472  0.84575212     0.17900
C645        C  0.37015724  0.10640374  0.60591862    -0.27400
C646        C  0.39101445  0.10918626  0.58681708     0.06300
C647        C  0.39651465  0.12495395  0.56216578     0.25900
C648        C  0.38179057  0.13817297  0.55721068    -0.11800
C649        C  0.36086486  0.13520617  0.57620143    -0.25800
C650        C  0.35511325  0.11919335  0.60064677     0.36700
C651        C  0.40665885  0.09543714  0.59297735     0.06300
F652        F  0.41561915  0.12709878  0.54258594    -0.19600
H653        H  0.38643607  0.15048662  0.53874229     0.16100
F654        F  0.33565491  0.11672297  0.61991361    -0.23300
H655        H  0.36578188  0.09460774  0.62513741     0.17900
C656        C  0.43626892  0.11055103  0.59294776     0.25900
C657        C  0.45055282  0.09747426  0.60036774    -0.11800
C658        C  0.43563117  0.06915100  0.60789435    -0.25800
C659        C  0.40601541  0.05400796  0.60762707     0.36800
C660        C  0.39176917  0.06710302  0.60028980    -0.27500
F661        F  0.45143442  0.13817938  0.58671442    -0.19600
H662        H  0.47332662  0.10965588  0.60022738     0.16100
F663        F  0.39072060  0.02664404  0.61482816    -0.23300
H664        H  0.36896759  0.05507264  0.60037715     0.17900
C665        C  0.39665025  0.32993009  0.56886043    -0.27400
C666        C  0.40637244  0.31432025  0.58146406     0.06300
C667        C  0.42855688  0.32765405  0.60143139     0.25900
C668        C  0.44001147  0.35593357  0.60947405    -0.11800
C669        C  0.42981980  0.37150552  0.59747659    -0.25800
C670        C  0.40834143  0.35831330  0.57656372     0.36700
C671        C  0.39126916  0.28357730  0.57610022     0.06300
F672        F  0.43814321  0.31294382  0.61419247    -0.19600
H673        H  0.45653955  0.36554680  0.62557067     0.16100
F674        F  0.39741843  0.37219353  0.56470643    -0.23300
H675        H  0.37938908  0.31984287  0.55359021     0.17900
C676        C  0.36405739  0.26636538  0.58693669     0.25900
C677        C  0.35001058  0.23724715  0.58324723    -0.11800
C678        C  0.36244969  0.22453902  0.56804648    -0.25800
C679        C  0.38959544  0.24196299  0.55656843     0.36800
C680        C  0.40394438  0.27122685  0.56089100    -0.27500
F681        F  0.35135555  0.27774351  0.60185215    -0.19600
H682        H  0.32946931  0.22460361  0.59288803     0.16100
F683        F  0.40195359  0.23088006  0.54055274    -0.23300
H684        H  0.42484270  0.28430572  0.55213890     0.17900
C685        C  0.16396897  0.09628012  0.57129432    -0.27400
C686        C  0.18144642  0.08730823  0.58081855     0.06300
C687        C  0.17068471  0.06500022  0.59963481     0.25900
C688        C  0.14316996  0.05267187  0.60980454    -0.11800
C689        C  0.12584607  0.06218180  0.60112275    -0.25800
C690        C  0.13620213  0.08357300  0.58098369     0.36700
C691        C  0.21180476  0.10351287  0.57439322     0.06300
F692        F  0.18736355  0.05625337  0.60944176    -0.19600
H693        H  0.13563957  0.03607265  0.62500719     0.16100
F694        F  0.12013598  0.09330694  0.57186210    -0.23300
H695        H  0.17214014  0.11369434  0.55698956     0.17900
C696        C  0.22407057  0.09245058  0.55637465     0.25900
C697        C  0.25339840  0.10711902  0.55314568    -0.11800
C698        C  0.27076953  0.13299175  0.56784092    -0.25800
C699        C  0.25821350  0.14386826  0.58587843     0.36800
C700        C  0.22903226  0.12935511  0.58882387    -0.27500
F701        F  0.20768925  0.06745891  0.54214002    -0.19600
H702        H  0.26255247  0.09835513  0.53913737     0.16100
F703        F  0.27421299  0.16780651  0.60191524    -0.23300
H704        H  0.21986561  0.13777618  0.60330456     0.17900
C705        C  0.40032487  0.07222962  0.97667063    -0.27400
C706        C  0.41089381  0.09881871  0.96541348     0.06300
C707        C  0.43483539  0.11042474  0.94787255     0.25900
C708        C  0.44740675  0.09513965  0.94106420    -0.11800
C709        C  0.43602030  0.06803288  0.95132241    -0.25800
C710        C  0.41269912  0.05687663  0.96967143     0.36700
C711        C  0.39560419  0.11330234  0.97053334     0.06300
F712        F  0.44519695  0.13588401  0.93626464    -0.19600
H713        H  0.46549179  0.10408769  0.92702132     0.16100
F714        F  0.40216475  0.03139142  0.98126691    -0.23300
H715        H  0.38217855  0.06321114  0.99062559     0.17900
C716        C  0.36708807  0.09978137  0.96291142     0.25900
C717        C  0.35250180  0.11333013  0.96734459    -0.11800
C718        C  0.36585033  0.14060074  0.97980111    -0.25800
C719        C  0.39465305  0.15421826  0.98728353     0.36800
C720        C  0.40928711  0.14058964  0.98265321    -0.27500
F721        F  0.35353428  0.07371934  0.95026816    -0.19600
H722        H  0.33079821  0.10256857  0.96024668     0.16100
F723        F  0.40864143  0.18036901  0.99968752    -0.23300
H724        H  0.43127974  0.15123660  0.98878861     0.17900
C725        C  0.37446997  0.27551500  0.48475773    -0.27400
C726        C  0.38762108  0.28389414  0.96272520     0.06300
C727        C  0.38990066  0.26561825  0.94306720     0.25900
C728        C  0.37652281  0.23706053  0.94836105    -0.11800
C729        C  0.35988533  0.22597418  0.97278866    -0.25800
C730        C  0.36002982  0.24671686  0.48935661     0.36700
C731        C  0.40247989  0.31443084  0.95744619     0.06300
F732        F  0.40445277  0.27517917  0.91831288    -0.19600
H733        H  0.37873342  0.22344334  0.93307753     0.16100
F734        F  0.34464232  0.23664256  0.51352054    -0.23300
H735        H  0.37369307  0.28921819  0.50106702     0.17900
C736        C  0.38879061  0.32931693  0.96095659     0.25900
C737        C  0.40242787  0.35743644  0.95339461    -0.11800
C738        C  0.42951122  0.37086155  0.94159518    -0.25800
C739        C  0.44359297  0.35646726  0.93912322     0.36800
C740        C  0.43035488  0.32867661  0.94745051    -0.27500
F741        F  0.36173780  0.31635929  0.97007374    -0.19600
H742        H  0.39126313  0.36828553  0.95537210     0.16100
F743        F  0.47015800  0.36928712  0.92863486    -0.23300
H744        H  0.44175333  0.31807925  0.94551781     0.17900
C745        C  0.22960231  0.09123687  0.96711152    -0.27400
C746        C  0.21367566  0.10231766  0.97713183     0.06300
C747        C  0.22703236  0.12757201  0.99351828     0.25900
C748        C  0.25614949  0.14228739  0.99813434    -0.11800
C749        C  0.27251920  0.13218722  0.98643596    -0.25800
C750        C  0.25868585  0.10596975  0.97145069     0.36700
C751        C  0.18385780  0.08872158  0.96808131     0.06300
F752        F  0.21227027  0.13890306  0.00356630    -0.19600
H753        H  0.26601304  0.16202306  0.01026139     0.16100
F754        F  0.27328499  0.09541275  0.95898929    -0.23300
H755        H  0.21960958  0.07162680  0.95471967     0.17900
C756        C  0.17665629  0.08301085  0.93884124     0.25900
C757        C  0.14868814  0.07048683  0.93005799    -0.11800
C758        C  0.12729057  0.06368191  0.95011624    -0.25800
C759        C  0.13447472  0.06936462  0.97946277     0.36800
C760        C  0.16255086  0.08177809  0.98827748    -0.27500
F761        F  0.19683824  0.09039790  0.91862594    -0.19600
H762        H  0.14388095  0.06665953  0.90734737     0.16100
F763        F  0.11449586  0.06260084  0.99972473    -0.23300
H764        H  0.17049693  0.08761438  0.50863291     0.17900
C765        C  0.34640464  0.65397632  0.98003341     0.04000
C766        C  0.31732558  0.63819227  0.98575740    -0.12200
C767        C  0.30097519  0.65030542  0.98453640     0.01500
C768        C  0.31468082  0.67944969  0.98130032    -0.10700
C769        C  0.34388707  0.69583746  0.97737135     0.04000
C770        C  0.35945215  0.68289944  0.97598795    -0.10100
H771        H  0.30709990  0.61604241  0.98983819     0.09600
H772        H  0.30253683  0.68923337  0.97992996     0.07100
H773        H  0.38154907  0.69540396  0.97062041     0.07000
C774        C  0.34440832  0.65174618  0.07045954     0.04000
C775        C  0.36022607  0.68109637  0.06874183    -0.12200
C776        C  0.34686835  0.69603177  0.06561495     0.01500
C777        C  0.31736230  0.68104435  0.06321635    -0.10700
C778        C  0.30116274  0.65179052  0.06594841     0.04000
C779        C  0.31490889  0.63720122  0.06895215    -0.10100
H780        H  0.38284289  0.69235062  0.07174987     0.09600
H781        H  0.30686604  0.69233159  0.06029667     0.07100
H782        H  0.30267016  0.61464551  0.07119242     0.07000
C783        C  0.14528324  0.85150064  0.31410864     0.04000
C784        C  0.17472503  0.86643035  0.31776885    -0.12200
C785        C  0.18917518  0.85228421  0.31800030     0.01500
C786        C  0.17392609  0.82288093  0.31556887    -0.10700
C787        C  0.14456692  0.80755155  0.31195441     0.04000
C788        C  0.13077357  0.82220816  0.30960889    -0.10100
H789        H  0.18643477  0.88897312  0.32151314     0.09600
H790        H  0.18484844  0.81200473  0.31841908     0.07100
H791        H  0.10831688  0.81049107  0.30562103     0.07000
C792        C  0.14622460  0.85567787  0.22527355     0.04000
C793        C  0.17580061  0.87134992  0.22698048    -0.12200
C794        C  0.19069347  0.85830094  0.23233475     0.01500
C795        C  0.17573170  0.82915900  0.23580346    -0.10700
C796        C  0.14628318  0.81285481  0.23302552     0.04000
C797        C  0.13168026  0.82641674  0.22859694    -0.10100
H798        H  0.18744713  0.89343815  0.22226043     0.09600
H799        H  0.18718390  0.81894694  0.23949190     0.07100
H800        H  0.10900932  0.81398530  0.22623420     0.07000
C801        C  0.04763790  0.95555302  0.36238321     0.43300
N802        N  0.01567463  0.96545918  0.36767580     0.02200
C803        C  0.03333979  0.59629275  0.39721526    -0.05700
H804        H  0.07102272  0.56129516  0.47241172     0.07700
C805        C  0.47451279  0.98113272  0.49304453    -0.06000
Co806      Co  0.03686930  0.52732873  0.36944719     0.74200
N807        N  0.05170769  0.54445323  0.43106266    -0.25200
Co808      Co  0.01399510  0.54321241  0.43212665     0.74100
C809        C  0.49705089  0.99770493  0.01058165     0.43400
N810        N  0.45468111  0.94395787  0.42707350     0.01800
N811        N  0.49900829  0.51517647  0.46529806     0.01900
N812        N  0.04815893  0.58551802  0.35629528    -0.46000
H813        H  0.08300416  0.00241074  0.36542070     0.07700
N814        N  0.06051074  0.53846266  0.40717145     0.02200
N815        N  0.47576366  0.54134622  0.43222705     0.02000
C816        C  0.44445654  0.55194613  0.43675661     0.43600
N817        N  0.46365124  0.93741084  0.40362372    -0.24700
C818        C  0.01821741  0.52780693  0.30696840    -0.05600
N819        N  0.01948431  0.94429361  0.36314987    -0.45800
N820        N  0.47246548  0.56284803  0.43616955    -0.46000
C821        C  0.49444246  0.50814512  0.28845599     0.43300
N822        N  0.03708598  0.56444812  0.37413725     0.02200
N823        N  0.43941428  0.96208113  0.36989231    -0.24700
N824        N  0.03964261  0.99001207  0.36925600    -0.25200
N825        N  0.43130210  0.96957946  0.39333652     0.01800
H826        H  0.41883792  0.94335663  0.32932230     0.07700
H827        H  0.40833408  0.50545521  0.43243264     0.07800
N828        N  0.02851379  0.57036157  0.39824637    -0.25200
N829        N  0.48016280  0.99321880  0.46755585    -0.24800
N830        N  0.49139833  0.99062162  0.33426601     0.02200
C831        C  0.09470349  0.55253632  0.43694781     0.43600
C832        C  0.45994514  0.91203324  0.40656245    -0.06100
N833        N  0.45160184  0.51702860  0.43020404    -0.24800
H834        H  0.45524009  0.96201573  0.49866894     0.07800
N835        N  0.08622117  0.54332666  0.40966410    -0.46100
H836        H  0.46408316  0.90054490  0.39031872     0.07700
C837        C  0.39673460  0.95478797  0.36403355     0.43400
C838        C  0.06101198  0.98592871  0.36629526    -0.05600
Co839      Co  0.47735938  0.96342330  0.36847915     0.73800
N840        N  0.44420734  0.92391121  0.44604682    -0.45800
C841        C  0.04648034  0.60637114  0.36941403     0.43700
N842        N  0.47986689  0.98489065  0.30839455    -0.45800
Co843      Co  0.45526420  0.98116610  0.43080845     0.73900
C844        C  0.43051491  0.52154807  0.43277505    -0.06100
C845        C  0.07178889  0.55339799  0.45120793    -0.05600
N846        N  0.01232234  0.51549331  0.33238170    -0.25200
N847        N  0.01052691  0.52057197  0.49130683    -0.45900
H848        H  0.02917893  0.60696970  0.41437662     0.07700
C849        C  0.41881529  0.95223306  0.35021466    -0.06100
Cl850      Cl  0.49350526  0.50325165  0.39778082    -0.49100
C851        C  0.44722599  0.90327545  0.43480216     0.43500
H852        H  0.03744373  0.54710780  0.30165648     0.07700
N853        N  0.40577703  0.96528501  0.39084689    -0.45800
C854        C  0.09520277  0.55166613  0.10996448     0.43300
N855        N  0.05432656  0.54430085  0.11933172     0.02200
C856        C  0.47476796  0.98302927  0.24292746    -0.05700
H857        H  0.99346863  0.91671336  0.18086143     0.07700
C858        C  0.44211328  0.92476369  0.09925121    -0.06000
Co859      Co  0.03549826  0.52368810  0.17853849     0.74200
N860        N  0.00785236  0.96064405  0.18056496    -0.25200
Co861      Co  0.47154310  0.96191657  0.18000505     0.74100
C862        C  0.44329792  0.90214840  0.11250405     0.43400
N863        N  0.48181227  0.99589214  0.08423085     0.01800
N864        N  0.45768263  0.93681438  0.14274369     0.01900
N865        N  0.01596474  0.52357712  0.24036355    -0.46000
H866        H  0.09789381  0.53545799  0.15370918     0.07700
N867        N  0.03310790  0.98380881  0.18118566     0.02200
N868        N  0.43577340  0.96444973  0.17868778     0.02000
C869        C  0.39611203  0.96017902  0.18806598     0.43600
N870        N  0.00336502  0.51872515  0.08198307    -0.24700
C871        C  0.04954017  0.58346022  0.19843185    -0.05600
N872        N  0.07446486  0.55451748  0.09980589    -0.45800
N873        N  0.41605027  0.95619587  0.19853692    -0.46000
C874        C  0.04809649  0.60598234  0.18548500     0.43300
N875        N  0.00922226  0.51159720  0.21434901     0.02200
N876        N  0.48104351  0.54576103  0.11768313    -0.24700
N877        N  0.06088942  0.53564848  0.14212087    -0.25200
N878        N  0.45604938  0.52230328  0.11690585     0.01800
H879        H  0.49475186  0.58927158  0.11438874     0.07700
H880        H  0.39431158  0.97584546  0.14361708     0.07800
N881        N  0.48618778  0.98764075  0.21677404    -0.25200
N882        N  0.45139755  0.94522049  0.11961981    -0.24800
N883        N  0.03164403  0.57066823  0.15576114     0.02200
C884        C  0.04098307  0.95043780  0.18170382     0.43600
C885        C  0.01490757  0.52248683  0.05597340    -0.06100
N886        N  0.42968589  0.97300526  0.15550123    -0.24800
H887        H  0.43517627  0.92575669  0.07810205     0.07800
N888        N  0.05353650  0.97865560  0.18200912    -0.46100
H889        H  0.03462558  0.54068937  0.04956348     0.07700
C890        C  0.44739324  0.55489264  0.11301145     0.43400
C891        C  0.08628441  0.53917650  0.13806576    -0.05600
Co892      Co  0.01779173  0.54527010  0.11837546     0.73800
N893        N  0.47547858  0.98336932  0.05850701    -0.45800
C894        C  0.49356289  0.50735378  0.25711890     0.43700
N895        N  0.03698713  0.59657604  0.15895345    -0.45800
Co896      Co  0.45514547  0.98414611  0.11938485     0.73900
C897        C  0.40512074  0.97128496  0.15944670    -0.06100
C898        C  0.01063080  0.93843167  0.18089448    -0.05600
N899        N  0.03883564  0.56251801  0.17852082    -0.25200
N900        N  0.45307459  0.91123565  0.13946433    -0.45900
H901        H  0.45499189  0.96468460  0.24897215     0.07700
C902        C  0.47778768  0.56754035  0.11546988    -0.06100
Cl903      Cl  0.49369718  0.50359332  0.14767935    -0.49100
C904        C  0.49799547  0.99918008  0.04185868     0.43500
H905        H  0.05806152  0.58320746  0.21897732     0.07700
N906        N  0.43534191  0.52680462  0.11393016    -0.45800
C907        C  0.06399410  0.68032696  0.19571567    -0.27400
C908        C  0.08708503  0.69229875  0.21454816     0.06300
C909        C  0.09652816  0.67550837  0.22481742     0.25900
C910        C  0.08311903  0.64715869  0.21613100    -0.11800
C911        C  0.06058984  0.63532412  0.19644621    -0.25800
C912        C  0.05100212  0.65216879  0.18645821     0.36700
C913        C  0.10270971  0.72282253  0.22126800     0.06300
F914        F  0.11902047  0.68670892  0.24284508    -0.19600
H915        H  0.09106614  0.63476656  0.22402139     0.16100
F916        F  0.02917832  0.64148545  0.16763116    -0.23300
H917        H  0.05664613  0.69310223  0.18742308     0.17900
C918        C  0.12932288  0.74037149  0.20928098     0.25900
C919        C  0.14346852  0.76941181  0.21388338    -0.11800
C920        C  0.13145236  0.78165885  0.23059958    -0.25800
C921        C  0.10483198  0.76391827  0.24295974     0.36800
C922        C  0.09062200  0.73473507  0.23824050    -0.27500
F923        F  0.14109517  0.72945813  0.19205495    -0.19600
H924        H  0.16352198  0.78243301  0.20343191     0.16100
F925        F  0.09259794  0.77466264  0.25968200    -0.23300
H926        H  0.07008097  0.72139809  0.24766854     0.17900
C927        C  0.26783687  0.91646720  0.24084093    -0.27400
C928        C  0.28077747  0.90567813  0.22355026     0.06300
C929        C  0.26427908  0.87907075  0.21015915     0.25900
C930        C  0.23512687  0.86365115  0.21361273    -0.11800
C931        C  0.22188815  0.87444656  0.23054877    -0.25800
C932        C  0.23857263  0.90094399  0.24446014     0.36700
C933        C  0.31127176  0.92256027  0.21802939     0.06300
F934        F  0.27631824  0.86848140  0.19285700    -0.19600
H935        H  0.22278167  0.84354541  0.20233487     0.16100
F936        F  0.22663985  0.91166394  0.26171458    -0.23300
H937        H  0.28040132  0.93694583  0.25135317     0.17900
C938        C  0.32213764  0.94435812  0.19858293     0.25900
C939        C  0.35016514  0.95736907  0.18982856    -0.11800
C940        C  0.36781857  0.94898710  0.20052263    -0.25800
C941        C  0.35728463  0.92830272  0.22141086     0.36800
C942        C  0.32910049  0.91500491  0.22979946    -0.27500
F943        F  0.30521818  0.95198571  0.18691833    -0.19600
H944        H  0.35780529  0.97349199  0.17408349     0.16100
F945        F  0.37366529  0.91979933  0.23259632    -0.23300
H946        H  0.32091279  0.89819939  0.24483147     0.17900
C947        C  0.12344952  0.90838281  0.22107702    -0.27400
C948        C  0.10021854  0.89426508  0.20241280     0.06300
C949        C  0.09262211  0.86775607  0.19079193     0.25900
C950        C  0.10761085  0.85544473  0.19835536    -0.11800
C951        C  0.13063632  0.86931940  0.21746310    -0.25800
C952        C  0.13869230  0.89629067  0.22833326     0.36700
C953        C  0.08454268  0.90774295  0.19503245     0.06300
F954        F  0.07131761  0.85411899  0.17140275    -0.19600
H955        H  0.10152339  0.83523446  0.18862836     0.16100
F956        F  0.16115280  0.91107740  0.24612607    -0.23300
H957        H  0.12975459  0.92887137  0.23025209     0.17900
C958        C  0.05502151  0.89324249  0.19701971     0.25900
C959        C  0.04089392  0.90700417  0.19183642    -0.11800
C960        C  0.05589999  0.93549933  0.18492105    -0.25800
C961        C  0.08534509  0.94977286  0.18227206     0.36800
C962        C  0.09942961  0.93597154  0.18726576    -0.27500
F963        F  0.03990994  0.86621324  0.20533672    -0.19600
H964        H  0.01825723  0.89548439  0.19418271     0.16100
F965        F  0.10064035  0.97712894  0.17504743    -0.23300
H966        H  0.12212581  0.94746397  0.18530271     0.17900
C967        C  0.08303934  0.68552715  0.36812730    -0.27400
C968        C  0.08590669  0.69016461  0.33860758     0.06300
C969        C  0.07636946  0.66714369  0.31927526     0.25900
C970        C  0.06365844  0.63990074  0.32945436    -0.11800
C971        C  0.06016464  0.63524167  0.35900096    -0.25800
C972        C  0.07036267  0.65842385  0.37831376     0.36700
C973        C  0.09898290  0.71918946  0.32859630     0.06300
F974        F  0.07861466  0.67091625  0.29061492    -0.19600
H975        H  0.05614506  0.62239357  0.31423360     0.16100
F976        F  0.06909396  0.65520469  0.40705786    -0.23300
H977        H  0.09093913  0.70305850  0.38338771     0.17900
C978        C  0.08925205  0.73626606  0.33890978     0.25900
C979        C  0.10357512  0.76457944  0.33237784    -0.11800
C980        C  0.12786775  0.77657531  0.31528359    -0.25800
C981        C  0.13684495  0.75910491  0.30381083     0.36800
C982        C  0.12243930  0.73064274  0.31042664    -0.27500
F983        F  0.06615436  0.72566212  0.35585784    -0.19600
H984        H  0.09623042  0.77739114  0.34181994     0.16100
F985        F  0.15961695  0.76950801  0.28645067    -0.23300
H986        H  0.13021043  0.71777956  0.30219609     0.17900
C987        C  0.26692289  0.87911093  0.31098072    -0.27400
C988        C  0.27830221  0.89697008  0.33542943     0.06300
C989        C  0.25999036  0.90001030  0.35399009     0.25900
C990        C  0.23118840  0.88594072  0.34781891    -0.11800
C991        C  0.21990037  0.86792757  0.32357406    -0.25800
C992        C  0.23797126  0.86427807  0.30541434     0.36700
C993        C  0.30907961  0.91211410  0.34158520     0.06300
F994        F  0.26971281  0.91579473  0.37863693    -0.19600
H995        H  0.21750428  0.88847936  0.36246911     0.16100
F996        F  0.22766349  0.84652660  0.28216301    -0.23300
H997        H  0.28046280  0.87664592  0.29606871     0.17900
C998        C  0.32393395  0.89833121  0.33873572     0.25900
C999        C  0.35274701  0.91273895  0.34496371    -0.11800
C1000       C  0.36709377  0.94079503  0.35494264    -0.25800
C1001       C  0.35246764  0.95464736  0.35783420     0.36800
C1002       C  0.32384130  0.94054983  0.35075203    -0.27500
F1003       F  0.31042982  0.87061530  0.33119630    -0.19600
H1004       H  0.36363524  0.90159914  0.34311340     0.16100
F1005       F  0.36595312  0.98189168  0.36720079    -0.23300
H1006       H  0.31317619  0.95189990  0.35252946     0.17900
C1007       C  0.08973603  0.86771229  0.33717626    -0.27400
C1008       C  0.10150446  0.89521463  0.32804519     0.06300
C1009       C  0.12719375  0.90796064  0.31322047     0.25900
C1010       C  0.14101373  0.89352612  0.30828144    -0.11800
C1011       C  0.12946396  0.86602567  0.31771184    -0.25800
C1012       C  0.10348878  0.85329180  0.33231579     0.37900
C1013       C  0.08776813  0.91093355  0.33598423     0.06300
F1014       F  0.13897227  0.93439924  0.30361476    -0.19600
H1015       H  0.16104725  0.90408294  0.29743591     0.16100
F1016       F  0.09210354  0.82761807  0.34372748    -0.23300
H1017       H  0.07032501  0.85773763  0.34923499     0.17900
C1018       C  0.05901188  0.89947868  0.33033769     0.25900
C1019       C  0.04601423  0.91387963  0.33938981    -0.11800
C1020       C  0.06141040  0.93996712  0.35417537    -0.25800
C1021       C  0.09009170  0.95118468  0.36020169     0.36800
C1022       C  0.10307439  0.93682794  0.35104919    -0.27500
F1023       F  0.04360096  0.87456810  0.31566476    -0.19600
H1024       H  0.02394867  0.90478655  0.33442663     0.16100
F1025       F  0.10547842  0.97556552  0.37570643    -0.23300
H1026       H  0.12502995  0.94564661  0.35635404     0.17900
C1027       C  0.36556771  0.60534991  0.10441593    -0.27400
C1028       C  0.38830444  0.61010990  0.08713986     0.06300
C1029       C  0.39600834  0.62805412  0.06397379     0.25900
C1030       C  0.38158934  0.64148292  0.05875891    -0.11800
C1031       C  0.35884948  0.63669552  0.07594422    -0.25800
C1032       C  0.35090001  0.61847265  0.09889430     0.36700
C1033       C  0.40368201  0.59617977  0.09350792     0.06300
F1034       F  0.41710018  0.63223369  0.04609520    -0.19600
H1035       H  0.38803613  0.65555594  0.04145233     0.16100
F1036       F  0.32974613  0.61425737  0.11667682    -0.23300
H1037       H  0.35947976  0.59180850  0.12250073     0.17900
C1038       C  0.43315740  0.61167695  0.09642563     0.25900
C1039       C  0.44722358  0.59816851  0.10292195    -0.11800
C1040       C  0.43220650  0.56902629  0.10669668    -0.25800
C1041       C  0.40267334  0.55359387  0.10391826     0.36800
C1042       C  0.38864157  0.56712612  0.09743866    -0.27500
F1043       F  0.44831325  0.63997003  0.09378190    -0.19600
H1044       H  0.46990220  0.61068047  0.10504202     0.16100
F1045       F  0.38723738  0.52543397  0.10743964    -0.23300
H1046       H  0.36592623  0.55483698  0.09528116     0.17900
C1047       C  0.40407267  0.83350806  0.06863772    -0.27400
C1048       C  0.40985567  0.81643519  0.08447904     0.06300
C1049       C  0.42801253  0.82799826  0.10821858     0.25900
C1050       C  0.43950388  0.85616468  0.11651349    -0.11800
C1051       C  0.43303635  0.87324437  0.10132082    -0.25800
C1052       C  0.41557455  0.86171904  0.07684465     0.36700
C1053       C  0.39394056  0.78590103  0.07855033     0.06300
F1054       F  0.43358951  0.81170977  0.12408919    -0.19600
H1055       H  0.45293521  0.86443017  0.13535064     0.16100
F1056       F  0.40830503  0.87702924  0.06161236    -0.23300
H1057       H  0.38975675  0.82464986  0.05049301     0.17900
C1058       C  0.36729868  0.76917935  0.09072251     0.25900
C1059       C  0.35215886  0.74015962  0.08605342    -0.11800
C1060       C  0.36312948  0.72718591  0.06887309    -0.25800
C1061       C  0.38980445  0.74413433  0.05626550     0.36800
C1062       C  0.40510159  0.77332412  0.06121389    -0.27500
F1063       F  0.35613328  0.78097331  0.10755853    -0.19600
H1064       H  0.33200357  0.72774790  0.09650095     0.16100
F1065       F  0.40083635  0.73262894  0.03880731    -0.23300
H1066       H  0.42560326  0.78612838  0.05152528     0.17900
C1067       C  0.16406778  0.60290848  0.07382848    -0.27400
C1068       C  0.18042517  0.59167177  0.08034745     0.06300
C1069       C  0.16800056  0.56629324  0.09474318     0.25900
C1070       C  0.13998277  0.55301395  0.10353485    -0.11800
C1071       C  0.12374408  0.56453229  0.09773516    -0.25800
C1072       C  0.13579836  0.58930359  0.08210604     0.36700
C1073       C  0.21100642  0.60767645  0.07468667     0.06300
F1074       F  0.18342313  0.55515555  0.10167043    -0.19600
H1075       H  0.13109518  0.53391906  0.11540687     0.16100
F1076       F  0.12085959  0.60124314  0.07627624    -0.23300
H1077       H  0.17342200  0.62255790  0.06283214     0.17900
C1078       C  0.22331222  0.59638372  0.05705376     0.25900
C1079       C  0.25259810  0.61089557  0.05395031    -0.11800
C1080       C  0.27003260  0.63690551  0.06834485    -0.25800
C1081       C  0.25753242  0.64804440  0.08610968     0.36800
C1082       C  0.22830690  0.63365793  0.08893230    -0.27500
F1083       F  0.20697452  0.57136848  0.04284686    -0.19600
H1084       H  0.26166418  0.60190114  0.04014933     0.16100
F1085       F  0.27358129  0.67207573  0.10200364    -0.23300
H1086       H  0.21916856  0.64230572  0.10314789     0.17900
C1087       C  0.39325157  0.57201694  0.46296249    -0.27400
C1088       C  0.40636627  0.59977054  0.45405769     0.06300
C1089       C  0.43256777  0.61206043  0.44031419     0.25900
C1090       C  0.44501653  0.59641623  0.43500593    -0.11800
C1091       C  0.43141286  0.56834418  0.44312872    -0.25800
C1092       C  0.40556972  0.55636308  0.45756029     0.36700
C1093       C  0.39199326  0.61522745  0.45865448     0.06300
F1094       F  0.44559431  0.63877244  0.43117320    -0.19600
H1095       H  0.46501211  0.60603857  0.42397821     0.16100
F1096       F  0.39251275  0.52983057  0.46717482    -0.23300
H1097       H  0.37334694  0.56244683  0.47415456     0.17900
C1098       C  0.36429600  0.60349555  0.44879000     0.25900
C1099       C  0.34995736  0.61710488  0.45462920    -0.11800
C1100       C  0.36285379  0.64269685  0.47048674    -0.25800
C1101       C  0.39107123  0.65494745  0.47947971     0.36800
C1102       C  0.40538454  0.64117932  0.47368389    -0.27500
F1103       F  0.35122581  0.57898495  0.43313193    -0.19600
H1104       H  0.32874801  0.60768494  0.44636313     0.16100
F1105       F  0.40456266  0.67963644  0.49479847    -0.23300
H1106       H  0.42673066  0.65045559  0.48153111     0.17900
C1107       C  0.36984259  0.77312495  0.98658289    -0.27400
C1108       C  0.38792910  0.78719508  0.46510087     0.06300
C1109       C  0.38812848  0.76906726  0.44360997     0.25900
C1110       C  0.37354683  0.74020507  0.44739002    -0.11800
C1111       C  0.35767593  0.72859875  0.47213284    -0.25800
C1112       C  0.35517791  0.74428746  0.99126004     0.36700
C1113       C  0.40456515  0.81810296  0.46135687     0.06300
F1114       F  0.40198457  0.77912299  0.41859361    -0.19600
H1115       H  0.37442734  0.72677604  0.43078095     0.16100
F1116       F  0.33878899  0.73422122  0.01482460    -0.23300
H1117       H  0.36828013  0.78684595  0.00226955     0.17900
C1118       C  0.39310347  0.83474173  0.46752070     0.25900
C1119       C  0.40788735  0.86302575  0.46028547    -0.11800
C1120       C  0.43389070  0.87492817  0.44624637    -0.25800
C1121       C  0.44603745  0.85887104  0.44158567     0.36800
C1122       C  0.43174099  0.83093299  0.44960445    -0.27500
F1123       F  0.36695478  0.82339168  0.47878797    -0.19600
H1124       H  0.39825006  0.87517289  0.46416811     0.16100
F1125       F  0.47162580  0.87010041  0.42902146    -0.23300
H1126       H  0.44164281  0.81903907  0.44579187     0.17900
C1127       C  0.22689336  0.59397601  0.46100802    -0.27400
C1128       C  0.21081605  0.60418408  0.47288151     0.06300
C1129       C  0.22412372  0.62849378  0.49073344     0.25900
C1130       C  0.25329288  0.64313634  0.49513291    -0.11800
C1131       C  0.26977498  0.63397501  0.48166047    -0.25800
C1132       C  0.25600567  0.60873558  0.46494875     0.36700
C1133       C  0.18088049  0.59073470  0.46425794     0.06300
F1134       F  0.20925745  0.63903991  0.50253156    -0.19600
H1135       H  0.26308338  0.66209482  0.50852410     0.16100
F1136       F  0.27064340  0.59925245  0.45046277    -0.23300
H1137       H  0.21698553  0.57508845  0.44746313     0.17900
C1138       C  0.17344018  0.58575470  0.43504574     0.25900
C1139       C  0.14537379  0.57292044  0.42663781    -0.11800
C1140       C  0.12406851  0.56516778  0.44702306    -0.25800
C1141       C  0.13144227  0.57032445  0.47632352     0.36800
C1142       C  0.15965711  0.58294402  0.48479641    -0.27500
F1143       F  0.19344651  0.59405967  0.41449087    -0.19600
H1144       H  0.14041094  0.56958395  0.40395289     0.16100
F1145       F  0.11151059  0.56276691  0.49680814    -0.23300
H1146       H  0.16508319  0.58698179  0.00734220     0.17900
C1147       C  0.34675316  0.65647603  0.47643701     0.04000
C1148       C  0.31773911  0.64018628  0.48220463    -0.12200
C1149       C  0.30114138  0.65211109  0.48252145     0.01500
C1150       C  0.31460187  0.68139876  0.48037626    -0.10700
C1151       C  0.34375412  0.69812696  0.47624048     0.04000
C1152       C  0.35953118  0.68548751  0.47358764    -0.10100
H1153       H  0.30789084  0.61791840  0.48539301     0.09600
H1154       H  0.30234277  0.69112592  0.48011492     0.07100
H1155       H  0.38164806  0.69832183  0.46832961     0.07000
C1156       C  0.34151407  0.64982240  0.57059463     0.04000
C1157       C  0.35710572  0.67926261  0.57035371    -0.12200
C1158       C  0.34349189  0.69413271  0.56848304     0.01500
C1159       C  0.31396985  0.67892591  0.56584585    -0.10700
C1160       C  0.29800501  0.64948584  0.56698613     0.04000
C1161       C  0.31202650  0.63505606  0.56896267    -0.10100
H1162       H  0.37971309  0.69049375  0.57341252     0.09600
H1163       H  0.30327250  0.69010601  0.56364851     0.07100
H1164       H  0.30002761  0.61239345  0.57024738     0.07000
C1165       C  0.14217544  0.84808689  0.81777044     0.04000
C1166       C  0.17158471  0.86297497  0.82182924    -0.12200
C1167       C  0.18606654  0.84882978  0.82129794     0.01500
C1168       C  0.17088825  0.81949282  0.81771636    -0.10700
C1169       C  0.14154506  0.80430010  0.81411730     0.04000
C1170       C  0.12770622  0.81893041  0.81259819    -0.10100
H1171       H  0.18321051  0.88543693  0.82619119     0.09600
H1172       H  0.18178998  0.80847324  0.81962438     0.07100
H1173       H  0.10521936  0.80722441  0.80871830     0.07000
C1174       C  0.14595139  0.85481410  0.72397722     0.04000
C1175       C  0.17551171  0.86986530  0.72466115    -0.12200
C1176       C  0.19007795  0.85645865  0.72999302     0.01500
C1177       C  0.17456697  0.82731645  0.73387080    -0.10700
C1178       C  0.14504938  0.81149449  0.73154962     0.04000
C1179       C  0.13088972  0.82555854  0.72740837    -0.10100
H1180       H  0.18724479  0.89184954  0.71952566     0.09600
H1181       H  0.18552123  0.81666750  0.73787429     0.07100
H1182       H  0.10816497  0.81357410  0.72559376     0.07000
C1183       C  0.04533813  0.95333908  0.86180884     0.43300
N1184       N  0.01385953  0.96386614  0.86678347     0.02200
C1185       C  0.03110796  0.59290779  0.89652480    -0.05700
H1186       H  0.07044476  0.55990619  0.97246784     0.07700
C1187       C  0.47291200  0.97819200  0.99257753    -0.06000
Co1188     Co  0.03590793  0.52433776  0.86992514     0.74200
N1189       N  0.05093445  0.54238119  0.93131725    -0.25200
Co1190     Co  0.01283629  0.54061978  0.93215817     0.74100
C1191       C  0.49855937  0.00064678  0.51106906     0.43400
N1192       N  0.45269461  0.94142831  0.92576335     0.01800
N1193       N  0.49844863  0.51304009  0.96552867     0.01900
N1194       N  0.04622391  0.58209143  0.85583338    -0.46000
H1195       H  0.08121889  0.00001845  0.86560138     0.07700
N1196       N  0.05973013  0.53616123  0.90757255     0.02200
N1197       N  0.47459603  0.53846900  0.93224032     0.02000
C1198       C  0.44304314  0.54864521  0.93782816     0.43600
N1199       N  0.46163999  0.93526898  0.90204423    -0.24700
C1200       C  0.01737533  0.52415867  0.80734251    -0.05600
N1201       N  0.01727773  0.94247326  0.86222467    -0.45800
N1202       N  0.47108509  0.55979745  0.93664287    -0.46000
C1203       C  0.49409907  0.50412945  0.78871691     0.43300
N1204       N  0.03563688  0.56129287  0.87400393     0.02200
N1205       N  0.43766000  0.96061737  0.86919145    -0.24700
N1206       N  0.03800852  0.98820816  0.86885291    -0.25200
N1207       N  0.42949843  0.96769501  0.89289114     0.01800
H1208       H  0.41686134  0.94186497  0.82870633     0.07700
H1209       H  0.40716278  0.50207193  0.93423452     0.07800
N1210       N  0.02691364  0.56727122  0.89797082    -0.25200
N1211       N  0.47842114  0.99036500  0.96712411    -0.24800
N1212       N  0.49007867  0.98978829  0.83401472     0.02200
C1213       C  0.09422702  0.55095559  0.93721057     0.43600
C1214       C  0.45771077  0.90973085  0.90420045    -0.06100
N1215       N  0.45051657  0.51404846  0.93050170    -0.24800
H1216       H  0.45365740  0.95907281  0.99823494     0.07800
N1217       N  0.08554166  0.54126063  0.91007262    -0.46100
H1218       H  0.46177903  0.89849814  0.88758090     0.07700
C1219       C  0.39458333  0.95258817  0.86391020     0.43400
C1220       C  0.05913000  0.98374536  0.86604714    -0.05600
Co1221     Co  0.47559735  0.96191096  0.86756020     0.73800
N1222       N  0.44187432  0.92085734  0.94415067    -0.45800
C1223       C  0.04397946  0.60274408  0.86861413     0.43700
N1224       N  0.47864500  0.98477391  0.80817291    -0.45800
Co1225     Co  0.45345282  0.97873339  0.93037489     0.73900
C1226       C  0.42929272  0.51829889  0.93381369    -0.06100
C1227       C  0.07120918  0.55180593  0.95137248    -0.05600
N1228       N  0.01144301  0.51195689  0.83281661    -0.25200
N1229       N  0.01010827  0.51865565  0.99130846    -0.45900
H1230       H  0.02670870  0.60360957  0.91346999     0.07700
C1231       C  0.41688708  0.95065418  0.84967089    -0.06100
Cl1232     Cl  0.49276464  0.50032600  0.89831683    -0.49100
C1233       C  0.44479556  0.90038964  0.93220142     0.43500
H1234       H  0.03649248  0.54358187  0.80208111     0.07700
N1235       N  0.40378823  0.96298997  0.89072550    -0.45800
C1236       C  0.09250035  0.54990894  0.60812135     0.43300
N1237       N  0.05266715  0.54426991  0.61926236     0.02200
C1238       C  0.47477680  0.98344620  0.74305238    -0.05700
H1239       H  0.99579674  0.91824140  0.68258363     0.07700
C1240       C  0.44275050  0.92464514  0.60008445    -0.06000
Co1241     Co  0.03445903  0.52282331  0.67827359     0.74200
N1242       N  0.00947415  0.96196128  0.68160396    -0.25200
Co1243     Co  0.47279495  0.96244253  0.68046100     0.74100
C1244       C  0.44348260  0.90189520  0.61361767     0.43400
N1245       N  0.48326536  0.99690469  0.58489346     0.01800
N1246       N  0.45944020  0.93730438  0.64315550     0.01900
N1247       N  0.01506315  0.52093241  0.74061884    -0.46000
H1248       H  0.09591173  0.53339562  0.65140307     0.07700
N1249       N  0.03453649  0.98538692  0.68235035     0.02200
N1250       N  0.43646900  0.96397090  0.67886069     0.02000
C1251       C  0.39611978  0.95831656  0.68764854     0.43600
N1252       N  0.00204313  0.51896886  0.58204686    -0.24700
C1253       C  0.04713387  0.58175089  0.69959380    -0.05600
N1254       N  0.07197745  0.55352982  0.59890796    -0.45800
N1255       N  0.41638515  0.95497039  0.69839953    -0.46000
C1256       C  0.04496728  0.60414485  0.68741590     0.43300
N1257       N  0.00833521  0.50965953  0.71429562     0.02200
N1258       N  0.47882436  0.54457360  0.61837084    -0.24700
N1259       N  0.05954175  0.53543722  0.64165879    -0.25200
N1260       N  0.45401619  0.52089943  0.61723228     0.01800
H1261       H  0.49201509  0.58791146  0.61468404     0.07700
H1262       H  0.39442464  0.97407602  0.64320098     0.07800
N1263       N  0.48670509  0.98816963  0.71717560    -0.25200
N1264       N  0.45296572  0.94555996  0.62002848    -0.24800
N1265       N  0.02937263  0.56955456  0.65682133     0.02200
C1266       C  0.04309432  0.95255917  0.68377758     0.43600
C1267       C  0.01388344  0.52350459  0.55614250    -0.06100
N1268       N  0.43033203  0.97242513  0.65563776    -0.24800
H1269       H  0.43499944  0.92518616  0.57920560     0.07800
N1270       N  0.05527898  0.98071706  0.68378186    -0.46100
H1271       H  0.03349198  0.54206269  0.55013094     0.07700
C1272       C  0.44484851  0.55311394  0.61271149     0.43400
C1273       C  0.08437473  0.53798198  0.63653288    -0.05600
Co1274     Co  0.01594830  0.54482560  0.61890197     0.73800
N1275       N  0.47716371  0.98497886  0.55889202    -0.45800
C1276       C  0.49314420  0.50372046  0.75731723     0.43700
N1277       N  0.03400907  0.59515032  0.66075786    -0.45800
Co1278     Co  0.45620706  0.98430815  0.61982675     0.73900
C1279       C  0.40534450  0.96985181  0.65921142    -0.06100
C1280       C  0.01269757  0.94006707  0.68248286    -0.05600
N1281       N  0.03690540  0.56125392  0.67921180    -0.25200
N1282       N  0.45400158  0.91137285  0.64029943    -0.45900
H1283       H  0.45500182  0.96496039  0.74883264     0.07700
C1284       C  0.47523598  0.56611362  0.61583242    -0.06100
Cl1285     Cl  0.49253127  0.50250619  0.64738703    -0.49100
C1286       C  0.49950989  0.00161734  0.54236021     0.43500
H1287       H  0.05574340  0.58129932  0.72000893     0.07700
N1288       N  0.43311689  0.52504992  0.61364929    -0.45800
C1289       C  0.05951325  0.67781046  0.69979744    -0.27400
C1290       C  0.08384978  0.69032109  0.71694243     0.06300
C1291       C  0.09420699  0.67387489  0.72595246     0.25900
C1292       C  0.08075274  0.64550888  0.71730205    -0.11800
C1293       C  0.05719072  0.63327822  0.69893393    -0.25800
C1294       C  0.04641784  0.64961163  0.69059241     0.36700
C1295       C  0.09995274  0.72106808  0.72264301     0.06300
F1296       F  0.11771243  0.68546482  0.74256908    -0.19600
H1297       H  0.08952468  0.63345815  0.72400814     0.16100
F1298       F  0.02340845  0.63840983  0.67330361    -0.23300
H1299       H  0.05135223  0.69024614  0.69254926     0.17900
C1300       C  0.12615858  0.73795169  0.70956530     0.25900
C1301       C  0.14073675  0.76712759  0.71312231    -0.11800
C1302       C  0.12959805  0.78021674  0.72986097    -0.25800
C1303       C  0.10337641  0.76319298  0.74325722     0.36800
C1304       C  0.08870292  0.73385486  0.73957650    -0.27500
F1305       F  0.13709199  0.72622107  0.69228683    -0.19600
H1306       H  0.16047080  0.77958271  0.70193800     0.16100
F1307       F  0.09207171  0.77479225  0.76013072    -0.23300
H1308       H  0.06850223  0.72108006  0.74985201     0.17900
C1309       C  0.26730308  0.91524104  0.73721371    -0.27400
C1310       C  0.28056640  0.90293794  0.72320145     0.06300
C1311       C  0.26431079  0.87510065  0.71269626     0.25900
C1312       C  0.23504857  0.86010573  0.71526053    -0.11800
C1313       C  0.22142603  0.87239443  0.72884531    -0.25800
C1314       C  0.23801257  0.90006714  0.74035206     0.36700
C1315       C  0.31101315  0.91970765  0.71728991     0.06300
F1316       F  0.27668017  0.86287756  0.69873320    -0.19600
H1317       H  0.22301156  0.83910103  0.70580398     0.16100
F1318       F  0.22603875  0.91243319  0.75479556    -0.23300
H1319       H  0.27966617  0.93668868  0.74551403     0.17900
C1320       C  0.32145654  0.94075498  0.69700891     0.25900
C1321       C  0.34949867  0.95402292  0.68833966    -0.11800
C1322       C  0.36762938  0.94660547  0.69982094    -0.25800
C1323       C  0.35746617  0.92652035  0.72132133     0.36800
C1324       C  0.32926016  0.91302350  0.72974921    -0.27500
F1325       F  0.30410302  0.94735019  0.68442766    -0.19600
H1326       H  0.35677733  0.96961654  0.67206515     0.16100
F1327       F  0.37427567  0.91887013  0.73319265    -0.23300
H1328       H  0.32141886  0.89680628  0.74543643     0.17900
C1329       C  0.12573756  0.90961260  0.72272852    -0.27400
C1330       C  0.10228644  0.89645713  0.70435361     0.06300
C1331       C  0.09347290  0.86983835  0.69217596     0.25900
C1332       C  0.10768617  0.85647272  0.69868473    -0.11800
C1333       C  0.13096137  0.86933981  0.71747415    -0.25800
C1334       C  0.13997568  0.89627560  0.72929794     0.36700
C1335       C  0.08697138  0.91050637  0.69826422     0.06300
F1336       F  0.07149385  0.85703436  0.67346646    -0.19600
H1337       H  0.10074011  0.83621004  0.68853385     0.16100
F1338       F  0.16225223  0.90963864  0.74755764    -0.23300
H1339       H  0.13277333  0.93011936  0.73236702     0.17900
C1340       C  0.05796484  0.89704092  0.70354806     0.25900
C1341       C  0.04374669  0.91065351  0.69829581    -0.11800
C1342       C  0.05822247  0.93801207  0.68794982    -0.25800
C1343       C  0.08724600  0.95144110  0.68250445     0.36800
C1344       C  0.10146291  0.93776361  0.68771544    -0.27500
F1345       F  0.04357844  0.87110274  0.71474626    -0.19600
H1346       H  0.02150869  0.89995616  0.70305232     0.16100
F1347       F  0.10182179  0.97761896  0.67187118    -0.23300
H1348       H  0.12380634  0.94839012  0.68340231     0.17900
C1349       C  0.08179389  0.68186936  0.86783855    -0.27400
C1350       C  0.08295072  0.68661630  0.83841658     0.06300
C1351       C  0.07183455  0.66361446  0.81882945     0.25900
C1352       C  0.05934810  0.63628197  0.82875187    -0.11800
C1353       C  0.05752872  0.63158184  0.85827216    -0.25800
C1354       C  0.06915887  0.65471180  0.87775824     0.36700
C1355       C  0.09575220  0.71575107  0.82889677     0.06300
F1356       F  0.07227142  0.66749887  0.79027617    -0.19600
H1357       H  0.05061891  0.61875563  0.81343048     0.16100
F1358       F  0.06925501  0.65133466  0.90637714    -0.23300
H1359       H  0.09089199  0.69935488  0.88323631     0.17900
C1360       C  0.08723496  0.73310071  0.84142741     0.25900
C1361       C  0.10160678  0.76151888  0.83549443    -0.11800
C1362       C  0.12478758  0.77336313  0.81692566    -0.25800
C1363       C  0.13262853  0.75577854  0.80338974     0.36800
C1364       C  0.11805742  0.72712449  0.80925410    -0.27500
F1365       F  0.06538604  0.72267613  0.86004491    -0.19600
H1366       H  0.09526704  0.77454469  0.84649132     0.16100
F1367       F  0.15446178  0.76629846  0.78478320    -0.23300
H1368       H  0.12491882  0.71407044  0.79937416     0.17900
C1369       C  0.26394539  0.87744312  0.81205144    -0.27400
C1370       C  0.27537487  0.89323235  0.83773133     0.06300
C1371       C  0.25695301  0.89405621  0.85804937     0.25900
C1372       C  0.22805296  0.88013178  0.85229550    -0.11800
C1373       C  0.21679892  0.86432699  0.82671430    -0.25800
C1374       C  0.23491880  0.86264311  0.80687749     0.36700
C1375       C  0.30634626  0.90881927  0.84315362     0.06300
F1376       F  0.26670212  0.90757862  0.88385798    -0.19600
H1377       H  0.21429047  0.88105823  0.86817896     0.16100
F1378       F  0.22452697  0.84679287  0.78239967    -0.23300
H1379       H  0.27749262  0.87664786  0.79583024     0.17900
C1380       C  0.32213947  0.89643040  0.83687776     0.25900
C1381       C  0.35112895  0.91129876  0.84245912    -0.11800
C1382       C  0.36476986  0.93838885  0.85512436    -0.25800
C1383       C  0.34920570  0.95088026  0.86123983     0.36800
C1384       C  0.32040322  0.93639448  0.85489118    -0.27500
F1385       F  0.30942469  0.86951373  0.82660806    -0.19600
H1386       H  0.36269879  0.90112319  0.83803974     0.16100
F1387       F  0.36193032  0.97720849  0.87314969    -0.23300
H1388       H  0.30904837  0.94678501  0.85926069     0.17900
C1389       C  0.08618567  0.86389475  0.83989231    -0.27400
C1390       C  0.09778860  0.89118913  0.83021766     0.06300
C1391       C  0.12347527  0.90387248  0.81539320     0.25900
C1392       C  0.13752714  0.88963513  0.81100053    -0.11800
C1393       C  0.12625829  0.86245536  0.82114750    -0.25800
C1394       C  0.10023201  0.84969095  0.83566590     0.37900
C1395       C  0.08415966  0.90703635  0.83777185     0.06300
F1396       F  0.13504883  0.93010906  0.80530319    -0.19600
H1397       H  0.15744622  0.90002840  0.79992405     0.16100
F1398       F  0.08904774  0.82419129  0.84744292    -0.23300
H1399       H  0.06674050  0.85398463  0.85190610     0.17900
C1400       C  0.05544830  0.89575059  0.83206804     0.25900
C1401       C  0.04287066  0.91075448  0.84031040    -0.11800
C1402       C  0.05865670  0.93721065  0.85436007    -0.25800
C1403       C  0.08722838  0.94814960  0.86057205     0.36800
C1404       C  0.09977397  0.93321265  0.85223446    -0.27500
F1405       F  0.03972084  0.87049952  0.81806554    -0.19600
H1406       H  0.02083710  0.90183358  0.83529801     0.16100
F1407       F  0.10297155  0.97287335  0.87541838    -0.23300
H1408       H  0.12168786  0.94188505  0.85760173     0.17900
C1409       C  0.36481546  0.60495592  0.60377639    -0.27400
C1410       C  0.38541768  0.60761775  0.58437039     0.06300
C1411       C  0.39092869  0.62371978  0.55993571     0.25900
C1412       C  0.37655069  0.63742380  0.55558420    -0.11800
C1413       C  0.35604244  0.63470457  0.57503253    -0.25800
C1414       C  0.35015095  0.61824018  0.59911859     0.36700
C1415       C  0.40086255  0.59352515  0.59015401     0.06300
F1416       F  0.40970007  0.62575479  0.53998364    -0.19600
H1417       H  0.38110542  0.64986800  0.53721353     0.16100
F1418       F  0.33088930  0.61578226  0.61864503    -0.23300
H1419       H  0.36038474  0.59292019  0.62281524     0.17900
C1420       C  0.43045242  0.60827652  0.58947597     0.25900
C1421       C  0.44459252  0.59502873  0.59683334    -0.11800
C1422       C  0.42959629  0.56689133  0.60503485    -0.25800
C1423       C  0.40000063  0.55208898  0.60543590     0.36800
C1424       C  0.38587602  0.56533701  0.59808556    -0.27500
F1425       F  0.44579758  0.63578232  0.58278477    -0.19600
H1426       H  0.46735160  0.60697689  0.59615865     0.16100
F1427       F  0.38463485  0.52496442  0.61341344    -0.23300
H1428       H  0.36308811  0.55355343  0.59873634     0.17900
C1429       C  0.39755135  0.83137303  0.57434000    -0.27400
C1430       C  0.40534266  0.81474866  0.58814582     0.06300
C1431       C  0.42657983  0.82710490  0.60914686     0.25900
C1432       C  0.43928943  0.85561774  0.61674607    -0.11800
C1433       C  0.43123452  0.87234858  0.60335732    -0.25800
C1434       C  0.41042949  0.85997206  0.58168909     0.36700
C1435       C  0.38960714  0.78412071  0.58231715     0.06300
F1436       F  0.43424820  0.81134034  0.62302472    -0.19600
H1437       H  0.45520266  0.86455361  0.63348147     0.16100
F1438       F  0.40141737  0.87494343  0.56853209    -0.23300
H1439       H  0.38099046  0.82198882  0.55827113     0.17900
C1440       C  0.36290369  0.76702732  0.59428604     0.25900
C1441       C  0.34815463  0.73796497  0.58955127    -0.11800
C1442       C  0.35953424  0.72531176  0.57243480    -0.25800
C1443       C  0.38628107  0.74265778  0.56011246     0.36800
C1444       C  0.40120254  0.77181644  0.56522065    -0.27500
F1445       F  0.35135307  0.77846056  0.61108121    -0.19600
H1446       H  0.32794073  0.72528512  0.59981543     0.16100
F1447       F  0.39769003  0.73161170  0.54255208    -0.23300
H1448       H  0.42172909  0.78485767  0.55566700     0.17900
C1449       C  0.16057306  0.59920257  0.57001035    -0.27400
C1450       C  0.17670543  0.58773197  0.57657351     0.06300
C1451       C  0.16399601  0.56219716  0.59070554     0.25900
C1452       C  0.13611798  0.54937660  0.59986791    -0.11800
C1453       C  0.12032883  0.56149685  0.59458124    -0.25800
C1454       C  0.13240481  0.58597510  0.57850086     0.36700
C1455       C  0.20747198  0.60410227  0.57214745     0.06300
F1456       F  0.17912608  0.55067124  0.59735701    -0.19600
H1457       H  0.12710718  0.53035637  0.61188328     0.16100
F1458       F  0.11771113  0.59818030  0.57270137    -0.23300
H1459       H  0.17012317  0.61890720  0.55910101     0.17900
C1460       C  0.22064230  0.59390957  0.55428140     0.25900
C1461       C  0.25006594  0.60882195  0.55238768    -0.11800
C1462       C  0.26675556  0.63406524  0.56834681    -0.25800
C1463       C  0.25335266  0.64398083  0.58644676     0.36800
C1464       C  0.22402740  0.62926683  0.58799514    -0.27500
F1465       F  0.20503278  0.56961938  0.53867782    -0.19600
H1466       H  0.25982200  0.60075591  0.53829904     0.16100
F1467       F  0.26856547  0.66710006  0.60381442    -0.23300
H1468       H  0.21418231  0.63698900  0.60244566     0.17900
C1469       C  0.39332767  0.56882052  0.96875216    -0.27400
C1470       C  0.40479897  0.59579367  0.95811435     0.06300
C1471       C  0.42923886  0.60739322  0.94135318     0.25900
C1472       C  0.44178040  0.59199527  0.93513048    -0.11800
C1473       C  0.42988228  0.56474153  0.94515904    -0.25800
C1474       C  0.40566941  0.55331648  0.96230792     0.36700
C1475       C  0.39037648  0.61107670  0.96362369     0.06300
F1476       F  0.44030647  0.63311115  0.93012021    -0.19600
H1477       H  0.46041871  0.60108619  0.92187259     0.16100
F1478       F  0.39433667  0.52753426  0.97346841    -0.23300
H1479       H  0.37468678  0.55974612  0.98201945     0.17900
C1480       C  0.36217436  0.59883555  0.95538256     0.25900
C1481       C  0.34827406  0.61293302  0.96089642    -0.11800
C1482       C  0.36206799  0.63953941  0.97492072    -0.25800
C1483       C  0.39073490  0.65212073  0.98248640     0.36800
C1484       C  0.40460436  0.63784792  0.97699107    -0.27500
F1485       F  0.34827327  0.57350327  0.94123044    -0.19600
H1486       H  0.32674320  0.60313042  0.95350753     0.16100
F1487       F  0.40535086  0.67788564  0.99568240    -0.23300
H1488       H  0.42643016  0.64758115  0.98343225     0.17900
C1489       C  0.37159514  0.77543669  0.48975902    -0.27400
C1490       C  0.38666358  0.78416040  0.96211454     0.06300
C1491       C  0.38844628  0.76567804  0.94235126     0.25900
C1492       C  0.37451316  0.73706380  0.94752665    -0.11800
C1493       C  0.35792495  0.72613302  0.97203186    -0.25800
C1494       C  0.35610739  0.74630947  0.49297936     0.36700
C1495       C  0.40225115  0.81476527  0.95704797     0.06300
F1496       F  0.40312835  0.77512973  0.91764960    -0.19600
H1497       H  0.37633280  0.72328666  0.93211110     0.16100
F1498       F  0.34018936  0.73549728  0.51672143    -0.23300
H1499       H  0.37111560  0.78875182  0.50674055     0.17900
C1500       C  0.38915331  0.83021803  0.96042970     0.25900
C1501       C  0.40365034  0.85856475  0.95357074    -0.11800
C1502       C  0.43105126  0.87169119  0.94261085    -0.25800
C1503       C  0.44444750  0.85663097  0.94001471     0.36800
C1504       C  0.43030624  0.82855979  0.94761040    -0.27500
F1505       F  0.36191271  0.81764284  0.96883729    -0.19600
H1506       H  0.39297270  0.86990046  0.95550854     0.16100
F1507       F  0.47123595  0.86909973  0.93019952    -0.23300
H1508       H  0.44118565  0.81743741  0.94566988     0.17900
C1509       C  0.22709392  0.59235351  0.96167191    -0.27400
C1510       C  0.21075085  0.60252126  0.97299142     0.06300
C1511       C  0.22387426  0.62696895  0.99072918     0.25900
C1512       C  0.25298237  0.64165537  0.99560577    -0.11800
C1513       C  0.26963465  0.63235236  0.98291343    -0.25800
C1514       C  0.25616069  0.60712558  0.96621018     0.36700
C1515       C  0.18066354  0.58867805  0.96435180     0.06300
F1516       F  0.20890151  0.63758001  0.00207076    -0.19600
H1517       H  0.26261091  0.66071093  0.00885952     0.16100
F1518       F  0.27113056  0.59762736  0.95243650    -0.23300
H1519       H  0.21743566  0.57334798  0.94831655     0.17900
C1520       C  0.17282440  0.58202733  0.93528162     0.25900
C1521       C  0.14469536  0.56934485  0.92699306    -0.11800
C1522       C  0.12366606  0.56336574  0.94727655    -0.25800
C1523       C  0.13141985  0.56998435  0.97641708     0.36800
C1524       C  0.15965135  0.58240704  0.98479774    -0.27500
F1525       F  0.19249392  0.58866825  0.91464565    -0.19600
H1526       H  0.13948883  0.56477142  0.90440382     0.16100
F1527       F  0.11185765  0.56417395  0.99690889    -0.23300
H1528       H  0.16492455  0.58638636  0.50740361     0.17900
C1529       C  0.84951421  0.15462615  0.98304658     0.04000
C1530       C  0.82048369  0.13869712  0.98906844    -0.12200
C1531       C  0.80372136  0.15027670  0.98682825     0.01500
C1532       C  0.81694783  0.17910570  0.98199294    -0.10700
C1533       C  0.84606743  0.19570928  0.97785860     0.04000
C1534       C  0.86204684  0.18322704  0.97744248    -0.10100
H1535       H  0.81068276  0.11690146  0.99449602     0.09600
H1536       H  0.80452040  0.18851542  0.97988798     0.07100
H1537       H  0.88409652  0.19584672  0.97193061     0.07000
C1538       C  0.84667079  0.15156158  0.07340841     0.04000
C1539       C  0.86162579  0.18082956  0.07070416    -0.12200
C1540       C  0.84737528  0.19474008  0.06641427     0.01500
C1541       C  0.81791514  0.17882558  0.06386259    -0.10700
C1542       C  0.80258681  0.14976297  0.06764804     0.04000
C1543       C  0.81710411  0.13609424  0.07175440    -0.10100
H1544       H  0.88424674  0.19287375  0.07382657     0.09600
H1545       H  0.80667911  0.18927505  0.06025815     0.07100
H1546       H  0.80540433  0.11364675  0.07476512     0.07000
C1547       C  0.64015830  0.34932449  0.31336791     0.04000
C1548       C  0.66967205  0.36427572  0.31608190    -0.12200
C1549       C  0.68411527  0.35009327  0.31593051     0.01500
C1550       C  0.66873920  0.32065807  0.31366070    -0.10700
C1551       C  0.63928943  0.30535179  0.31077897     0.04000
C1552       C  0.62546507  0.32003287  0.30920620    -0.10100
H1553       H  0.68141062  0.38686961  0.31945784     0.09600
H1554       H  0.67964992  0.30972866  0.31616286     0.07100
H1555       H  0.60287297  0.30840872  0.30608461     0.07000
C1556       C  0.64337212  0.35498236  0.22401506     0.04000
C1557       C  0.67301922  0.37015476  0.22590010    -0.12200
C1558       C  0.68735778  0.35644860  0.23097207     0.01500
C1559       C  0.67189952  0.32728051  0.23384836    -0.10700
C1560       C  0.64252914  0.31152485  0.23088473     0.04000
C1561       C  0.62836965  0.32558837  0.22686439    -0.10100
H1562       H  0.68518370  0.39233218  0.22163395     0.09600
H1563       H  0.68294582  0.31660716  0.23730630     0.07100
H1564       H  0.60567968  0.31342421  0.22468813     0.07000
C1565       C  0.54352491  0.45518507  0.35813895     0.43300
N1566       N  0.51164834  0.46526463  0.36310797     0.02200
C1567       C  0.53591427  0.09617277  0.39938818    -0.05700
H1568       H  0.57652152  0.06261613  0.47489072     0.07700
C1569       C  0.96905012  0.47885393  0.48877032    -0.06000
Co1570     Co  0.54072186  0.02765387  0.37254835     0.74200
N1571       N  0.55663758  0.04570194  0.43379926    -0.25200
Co1572     Co  0.51898698  0.04456014  0.43538480     0.74100
C1573       C  0.99271669  0.49669714  0.00746425     0.43400
N1574       N  0.95035526  0.44253596  0.42179411     0.01800
N1575       N  0.00460469  0.01698538  0.46933469     0.01900
N1576       N  0.55021252  0.08523494  0.35820733    -0.46000
H1577       H  0.57894112  0.50210937  0.36223162     0.07700
N1578       N  0.56502097  0.03944084  0.40978932     0.02200
N1579       N  0.98115512  0.04293416  0.43626512     0.02000
C1580       C  0.95036935  0.05405851  0.44151053     0.43600
N1581       N  0.95961390  0.43666937  0.39812896    -0.24700
C1582       C  0.52099531  0.02697861  0.31032524    -0.05600
N1583       N  0.51539522  0.44407639  0.35851264    -0.45800
N1584       N  0.97826614  0.06465975  0.44042712    -0.46000
C1585       C  0.99710816  0.00704890  0.29239327     0.43300
N1586       N  0.54074225  0.06480243  0.37675289     0.02200
N1587       N  0.93537906  0.46167748  0.36503776    -0.24700
N1588       N  0.53563108  0.48971655  0.36534165    -0.25200
N1589       N  0.92697619  0.46855513  0.38868063     0.01800
H1590       H  0.91497212  0.44339174  0.32427079     0.07700
H1591       H  0.91377571  0.00776864  0.43817759     0.07800
N1592       N  0.53255706  0.07091360  0.40099187    -0.25200
N1593       N  0.97491921  0.49116357  0.46336638    -0.24800
N1594       N  0.98802832  0.49125487  0.33030804     0.02200
C1595       C  0.59953695  0.05333556  0.43905651     0.43600
C1596       C  0.95656768  0.41154213  0.40041042    -0.06100
N1597       N  0.95683810  0.01875666  0.43460730    -0.24800
H1598       H  0.94977514  0.45961565  0.49414132     0.07800
N1599       N  0.59062541  0.04397395  0.41191364    -0.46100
H1600       H  0.96128336  0.40071043  0.38391586     0.07700
C1601       C  0.89247149  0.45396088  0.35935179     0.43400
C1602       C  0.55696142  0.48557041  0.36253540    -0.05600
Co1603     Co  0.97350067  0.46330765  0.36374565     0.73800
N1604       N  0.94026111  0.42214533  0.44036125    -0.45800
C1605       C  0.54778197  0.10578378  0.37107853     0.43700
N1606       N  0.97685662  0.48596888  0.30433112    -0.45800
Co1607     Co  0.95052044  0.47954984  0.42630670     0.73900
C1608       C  0.93601726  0.02361892  0.43773685    -0.06100
C1609       C  0.57697564  0.05461957  0.45364641    -0.05600
N1610       N  0.51556613  0.01501790  0.33589117    -0.25200
N1611       N  0.51622545  0.02266680  0.49501020    -0.45900
H1612       H  0.53109121  0.10648978  0.41635021     0.07700
C1613       C  0.91480905  0.45194652  0.34530766    -0.06100
Cl1614     Cl  0.99798699  0.00404371  0.40191072    -0.49100
C1615       C  0.94394558  0.40212786  0.42848570     0.43500
H1616       H  0.54001733  0.04632400  0.30469026     0.07700
N1617       N  0.90135630  0.46400817  0.38628838    -0.45800
C1618       C  0.59746373  0.04986984  0.11359348     0.43300
N1619       N  0.55709035  0.04368887  0.12313421     0.02200
C1620       C  0.97256208  0.48397067  0.23947340    -0.05700
H1621       H  0.49191132  0.41730423  0.17865912     0.07700
C1622       C  0.93932889  0.42369155  0.09692678    -0.06000
Co1623     Co  0.53781823  0.02306923  0.18220619     0.74200
N1624       N  0.50599751  0.46109810  0.17725108    -0.25200
Co1625     Co  0.96937146  0.46199394  0.17716236     0.74100
C1626       C  0.94075763  0.40129666  0.11045664     0.43400
N1627       N  0.97848555  0.49505146  0.08130608     0.01800
N1628       N  0.95544072  0.43645238  0.14018341     0.01900
N1629       N  0.51822280  0.02253226  0.24401133    -0.46000
H1630       H  0.59980593  0.03358926  0.15747156     0.07700
N1631       N  0.53118595  0.48436109  0.17747046     0.02200
N1632       N  0.93301367  0.46372629  0.17604352     0.02000
C1633       C  0.89259878  0.45819208  0.18470250     0.43600
N1634       N  0.50686068  0.01933833  0.08523005    -0.24700
C1635       C  0.55099318  0.08253175  0.20267299    -0.05600
N1636       N  0.57704271  0.05320456  0.10346000    -0.45800
N1637       N  0.91293265  0.45496997  0.19564579    -0.46000
C1638       C  0.54894141  0.10473438  0.18981156     0.43300
N1639       N  0.51136855  0.01091942  0.21785602     0.02200
N1640       N  0.98473069  0.04672268  0.12083645    -0.24700
N1641       N  0.56340976  0.03492064  0.14598552    -0.25200
N1642       N  0.95959975  0.02347051  0.11981831     0.01800
H1643       H  0.99899171  0.09047345  0.11830437     0.07700
H1644       H  0.89124781  0.47383576  0.14000050     0.07800
N1645       N  0.98409132  0.48823880  0.21344019    -0.25200
N1646       N  0.94885352  0.44447959  0.11698451    -0.24800
N1647       N  0.53446104  0.07024422  0.15946534     0.02200
C1648       C  0.53935011  0.45120336  0.17893890     0.43600
C1649       C  0.51877548  0.02312393  0.05940433    -0.06100
N1650       N  0.92680382  0.47192663  0.15269432    -0.24800
H1651       H  0.93174638  0.42421934  0.07596488     0.07800
N1652       N  0.55175424  0.47939849  0.17863450    -0.46100
H1653       H  0.53875931  0.04117405  0.05330122     0.07700
C1654       C  0.95151478  0.05652954  0.11650204     0.43400
C1655       C  0.58849857  0.03774544  0.14186453    -0.05600
Co1656     Co  0.52105519  0.04542732  0.12187203     0.73800
N1657       N  0.97188860  0.48237796  0.05566115    -0.45800
C1658       C  0.99587238  0.00630229  0.26101600     0.43700
N1659       N  0.53877268  0.09569321  0.16297815    -0.45800
Co1660     Co  0.95213541  0.48322795  0.11657514     0.73900
C1661       C  0.90190243  0.46946168  0.15616204    -0.06100
C1662       C  0.50897348  0.43903881  0.17813074    -0.05600
N1663       N  0.54134979  0.06198065  0.18235252    -0.25200
N1664       N  0.95080806  0.41084701  0.13727006    -0.45900
H1665       H  0.95276730  0.46569880  0.24560412     0.07700
C1666       C  0.98184790  0.06877967  0.11895800    -0.06100
Cl1667     Cl  0.99638651  0.00378532  0.15104036    -0.49100
C1668       C  0.99406746  0.49830833  0.03870741     0.43500
H1669       H  0.55874897  0.08207447  0.22360008     0.07700
N1670       N  0.93914168  0.02837000  0.11705122    -0.45800
C1671       C  0.56035510  0.17710652  0.19990347    -0.27400
C1672       C  0.58450572  0.19068917  0.21727611     0.06300
C1673       C  0.59567299  0.17533895  0.22744842     0.25900
C1674       C  0.58311500  0.14685885  0.21972313    -0.11800
C1675       C  0.55980241  0.13360063  0.20106193    -0.25800
C1676       C  0.54821429  0.14885522  0.19158737     0.36700
C1677       C  0.59953107  0.22140449  0.22209559     0.06300
F1678       F  0.61910799  0.18811681  0.24424378    -0.19600
H1679       H  0.59245082  0.13557125  0.22721859     0.16100
F1680       F  0.52540935  0.13657201  0.17392121    -0.23300
H1681       H  0.55163573  0.18874825  0.19177788     0.17900
C1682       C  0.62523435  0.23871392  0.20835063     0.25900
C1683       C  0.63897126  0.26783446  0.21155084    -0.11800
C1684       C  0.62739767  0.28036046  0.22852582    -0.25800
C1685       C  0.60141104  0.26291175  0.24209429     0.36800
C1686       C  0.58764564  0.23363194  0.23887947    -0.27500
F1687       F  0.63654073  0.22740534  0.19099016    -0.19600
H1688       H  0.65849137  0.28067729  0.20014038     0.16100
F1689       F  0.58956649  0.27404265  0.25883136    -0.23300
H1690       H  0.56770916  0.22046077  0.24947740     0.17900
C1691       C  0.76522796  0.41175734  0.24189800    -0.27400
C1692       C  0.77747665  0.40125135  0.22312123     0.06300
C1693       C  0.76023698  0.37544561  0.20846939     0.25900
C1694       C  0.73110428  0.36087969  0.21166438    -0.11800
C1695       C  0.71852802  0.37176319  0.22949027    -0.25800
C1696       C  0.73586902  0.39717879  0.24500730     0.36700
C1697       C  0.80750474  0.41860260  0.21544305     0.06300
F1698       F  0.77161383  0.36488617  0.19017033    -0.19600
H1699       H  0.71825034  0.34145700  0.19939200     0.16100
F1700       F  0.72444351  0.40780804  0.26312218    -0.23300
H1701       H  0.77830143  0.43168584  0.25326859     0.17900
C1702       C  0.81460942  0.42989832  0.18813456     0.25900
C1703       C  0.84240830  0.44362423  0.17889183    -0.11800
C1704       C  0.86381812  0.44613435  0.19651967    -0.25800
C1705       C  0.85685232  0.43568300  0.22443453     0.36800
C1706       C  0.82880771  0.42206790  0.23382822    -0.27500
F1707       F  0.79435975  0.42686121  0.17000695    -0.19600
H1708       H  0.84678063  0.45139625  0.15741784     0.16100
F1709       F  0.87692069  0.43809997  0.24238761    -0.23300
H1710       H  0.82356808  0.41341713  0.25499791     0.17900
C1711       C  0.62213057  0.40915211  0.22061288    -0.27400
C1712       C  0.59810929  0.39505346  0.20301109     0.06300
C1713       C  0.58940352  0.36809833  0.19189525     0.25900
C1714       C  0.60424505  0.35542390  0.19869796    -0.11800
C1715       C  0.62810610  0.36922311  0.21679655    -0.25800
C1716       C  0.63709006  0.39657317  0.22734833     0.36700
C1717       C  0.58273068  0.40891913  0.19590639     0.06300
F1718       F  0.56706916  0.35433708  0.17369014    -0.19600
H1719       H  0.59729627  0.33493703  0.18914459     0.16100
F1720       F  0.66018787  0.41130420  0.24433523    -0.23300
H1721       H  0.62926235  0.42999298  0.22934795     0.17900
C1722       C  0.55346319  0.39527824  0.19977384     0.25900
C1723       C  0.53941847  0.40889672  0.19354833    -0.11800
C1724       C  0.55426615  0.43646317  0.18369188    -0.25800
C1725       C  0.58350011  0.45000080  0.17955390     0.36800
C1726       C  0.59752844  0.43631920  0.18566538    -0.27500
F1727       F  0.53858232  0.36920927  0.21063331    -0.19600
H1728       H  0.51698203  0.39802967  0.19726641     0.16100
F1729       F  0.59854679  0.47638060  0.16946081    -0.23300
H1730       H  0.62003869  0.44712300  0.18231593     0.17900
C1731       C  0.57821641  0.18400538  0.36752435    -0.27400
C1732       C  0.58170789  0.18818093  0.33794975     0.06300
C1733       C  0.57408293  0.16504942  0.31926776     0.25900
C1734       C  0.56303737  0.13825783  0.33015195    -0.11800
C1735       C  0.55922937  0.13410013  0.35976966    -0.25800
C1736       C  0.56704066  0.15737331  0.37839399     0.36700
C1737       C  0.59406095  0.21697183  0.32736517     0.06300
F1738       F  0.57674881  0.16823227  0.29053783    -0.19600
H1739       H  0.55720446  0.12071137  0.31540930     0.16100
F1740       F  0.56503742  0.15489780  0.40723584    -0.23300
H1741       H  0.58467763  0.20160119  0.38240514     0.17900
C1742       C  0.58426839  0.23398330  0.33781106     0.25900
C1743       C  0.59850853  0.26230923  0.33138352    -0.11800
C1744       C  0.62263567  0.27437022  0.31405532    -0.25800
C1745       C  0.63146294  0.25692708  0.30216810     0.36800
C1746       C  0.61729791  0.22850608  0.30887601    -0.27500
F1747       F  0.56127789  0.22337049  0.35491574    -0.19600
H1748       H  0.59122384  0.27506309  0.34110972     0.16100
F1749       F  0.65385888  0.26731523  0.28429119    -0.23300
H1750       H  0.62519382  0.21579535  0.30052880     0.17900
C1751       C  0.76173840  0.37593880  0.30897021    -0.27400
C1752       C  0.77351709  0.39494999  0.33255153     0.06300
C1753       C  0.75547586  0.39901901  0.35051146     0.25900
C1754       C  0.72663184  0.38487012  0.34455462    -0.11800
C1755       C  0.71494223  0.36572791  0.32117952    -0.25800
C1756       C  0.73272700  0.36101060  0.30369291     0.36700
C1757       C  0.80442566  0.41033473  0.33831001     0.06300
F1758       F  0.76546552  0.41592906  0.37441610    -0.19600
H1759       H  0.71322415  0.38825836  0.35877632     0.16100
F1760       F  0.72213937  0.34226396  0.28123543    -0.23300
H1761       H  0.77501244  0.37270345  0.29441047     0.17900
C1762       C  0.81941467  0.39665135  0.33569563     0.25900
C1763       C  0.84837801  0.41138551  0.34125693    -0.11800
C1764       C  0.86274735  0.43965076  0.35049213    -0.25800
C1765       C  0.84797713  0.45335182  0.35335570     0.36800
C1766       C  0.81923785  0.43897633  0.34674131    -0.27500
F1767       F  0.80594579  0.36874766  0.32908387    -0.19600
H1768       H  0.85937348  0.40034288  0.33958221     0.16100
F1769       F  0.86141585  0.48070536  0.36233767    -0.23300
H1770       H  0.80855484  0.45031228  0.34830523     0.17900
C1771       C  0.58560733  0.36613458  0.33844879    -0.27400
C1772       C  0.59620462  0.39276837  0.32731621     0.06300
C1773       C  0.62095160  0.40475836  0.31088679     0.25900
C1774       C  0.63498571  0.39051781  0.30630681    -0.11800
C1775       C  0.62444970  0.36384653  0.31742910    -0.25800
C1776       C  0.59950744  0.35182772  0.33372336     0.37900
C1777       C  0.58251130  0.40865998  0.33473231     0.06300
F1778       F  0.63160214  0.43027514  0.29930186    -0.19600
H1779       H  0.65434561  0.40049810  0.29432041     0.16100
F1780       F  0.58937568  0.32702196  0.34667952    -0.23300
H1781       H  0.56705790  0.35680415  0.35182651     0.17900
C1782       C  0.55323467  0.39625276  0.33186903     0.25900
C1783       C  0.54073182  0.41140679  0.33983442    -0.11800
C1784       C  0.55709439  0.43917146  0.35082498    -0.25800
C1785       C  0.58632212  0.45131309  0.35416810     0.36800
C1786       C  0.59877006  0.43620142  0.34611300    -0.27500
F1787       F  0.53677976  0.36968102  0.32087781    -0.19600
H1788       H  0.51820669  0.40146313  0.33706803     0.16100
F1789       F  0.60300285  0.47751775  0.36582963    -0.23300
H1790       H  0.62120772  0.44590435  0.34933542     0.17900
C1791       C  0.87004759  0.10793366  0.10979925    -0.27400
C1792       C  0.89297639  0.11285894  0.09274400     0.06300
C1793       C  0.90036391  0.13033205  0.06921061     0.25900
C1794       C  0.88521907  0.14286106  0.06318691    -0.11800
C1795       C  0.86210021  0.13768328  0.07998155    -0.25800
C1796       C  0.85468408  0.12018039  0.10351109     0.36700
C1797       C  0.90831286  0.09886921  0.09915132     0.06300
F1798       F  0.92167669  0.13468279  0.05158279    -0.19600
H1799       H  0.89132869  0.15643368  0.04542253     0.16100
F1800       F  0.83322733  0.11567367  0.12098080    -0.23300
H1801       H  0.86417641  0.09472500  0.12813985     0.17900
C1802       C  0.93779134  0.11418441  0.10211483     0.25900
C1803       C  0.95172767  0.10037342  0.10802180    -0.11800
C1804       C  0.93656325  0.07110417  0.11104286    -0.25800
C1805       C  0.90703580  0.05590691  0.10830069     0.36800
C1806       C  0.89315370  0.06973280  0.10249848    -0.27500
F1807       F  0.95306514  0.14252583  0.09989077    -0.19600
H1808       H  0.97441628  0.11270919  0.11015924     0.16100
F1809       F  0.89144879  0.02764633  0.11105822    -0.23300
H1810       H  0.87044675  0.05756845  0.10023446     0.17900
C1811       C  0.90585523  0.33343615  0.06468502    -0.27400
C1812       C  0.90708391  0.31516735  0.08338792     0.06300
C1813       C  0.92079296  0.32558195  0.10989585     0.25900
C1814       C  0.93239072  0.35378441  0.11795013    -0.11800
C1815       C  0.93035023  0.37213399  0.09983827    -0.25800
C1816       C  0.91740631  0.36174430  0.07272828     0.36700
C1817       C  0.89141464  0.28472199  0.07683854     0.06300
F1818       F  0.92213855  0.30819500  0.12836523    -0.19600
H1819       H  0.94236048  0.36106577  0.13881309     0.16100
F1820       F  0.91512255  0.37846750  0.05420815    -0.23300
H1821       H  0.89513971  0.32554029  0.04422427     0.17900
C1822       C  0.86477251  0.26755143  0.08885058     0.25900
C1823       C  0.85058831  0.23848834  0.08493862    -0.11800
C1824       C  0.86254271  0.22589329  0.06871329    -0.25800
C1825       C  0.88906989  0.24327123  0.05602769     0.36800
C1826       C  0.90337665  0.27252787  0.06014175    -0.27500
F1827       F  0.85273000  0.27895499  0.10489742    -0.19600
H1828       H  0.83046243  0.22577147  0.09535295     0.16100
F1829       F  0.90097166  0.23207470  0.03943538    -0.23300
H1830       H  0.92392297  0.28565105  0.05066489     0.17900
C1831       C  0.66523823  0.09925611  0.07481274    -0.27400
C1832       C  0.68228137  0.08934459  0.08311023     0.06300
C1833       C  0.67078030  0.06535079  0.09965649     0.25900
C1834       C  0.64286774  0.05210513  0.10876573    -0.11800
C1835       C  0.62589196  0.06235038  0.10119008    -0.25800
C1836       C  0.63708335  0.08566326  0.08341129     0.36700
C1837       C  0.71269752  0.10550215  0.07708640     0.06300
F1838       F  0.68701185  0.05560584  0.10818690    -0.19600
H1839       H  0.63467018  0.03409900  0.12222847     0.16100
F1840       F  0.62138316  0.09625320  0.07561092    -0.23300
H1841       H  0.67395764  0.11787644  0.06216007     0.17900
C1842       C  0.72474770  0.09473780  0.05836081     0.25900
C1843       C  0.75404106  0.10907910  0.05527281    -0.11800
C1844       C  0.77155821  0.13451849  0.07052154    -0.25800
C1845       C  0.75928530  0.14519729  0.08923193     0.36800
C1846       C  0.73011329  0.13084964  0.09228726    -0.27500
F1847       F  0.70814134  0.07041136  0.04314279    -0.19600
H1848       H  0.76304998  0.10051593  0.04078983     0.16100
F1849       F  0.77557362  0.16882963  0.10560841    -0.23300
H1850       H  0.72109702  0.13904127  0.10727511     0.17900
C1851       C  0.90239201  0.07510223  0.47474615    -0.27400
C1852       C  0.91283677  0.10144577  0.46295550     0.06300
C1853       C  0.93672306  0.11285110  0.44534850     0.25900
C1854       C  0.94926124  0.09749756  0.43885860    -0.11800
C1855       C  0.93789072  0.07056064  0.44954763    -0.25800
C1856       C  0.91473089  0.05968680  0.46806157     0.36700
C1857       C  0.89750797  0.11589285  0.46763273     0.06300
F1858       F  0.94706263  0.13816317  0.43339968    -0.19600
H1859       H  0.96729427  0.10623932  0.42475091     0.16100
F1860       F  0.90434053  0.03442685  0.48012104    -0.23300
H1861       H  0.88436672  0.06631615  0.48885233     0.17900
C1862       C  0.86881269  0.10197579  0.46064653     0.25900
C1863       C  0.85426287  0.11560095  0.46451937    -0.11800
C1864       C  0.86778379  0.14324285  0.47602648    -0.25800
C1865       C  0.89670105  0.15715094  0.48306914     0.36800
C1866       C  0.91135104  0.14354102  0.47874785    -0.27500
F1867       F  0.85501396  0.07541073  0.44921111    -0.19600
H1868       H  0.83242712  0.10452869  0.45782716     0.16100
F1869       F  0.91062222  0.18333241  0.49540701    -0.23300
H1870       H  0.93343080  0.15440728  0.48458208     0.17900
C1871       C  0.87060555  0.27257633  0.98672516    -0.27400
C1872       C  0.89015559  0.28658513  0.45946455     0.06300
C1873       C  0.89094503  0.26805751  0.43890775     0.25900
C1874       C  0.87737940  0.23945246  0.44406502    -0.11800
C1875       C  0.86201403  0.22863239  0.46926267    -0.25800
C1876       C  0.85633359  0.24377419  0.99136142     0.36700
C1877       C  0.90498750  0.31712839  0.45430318     0.06300
F1878       F  0.90418701  0.27741145  0.41347655    -0.19600
H1879       H  0.87844479  0.22559777  0.42813143     0.16100
F1880       F  0.83968862  0.23345907  0.01472309    -0.23300
H1881       H  0.86863642  0.28606907  0.00235677     0.17900
C1882       C  0.89190596  0.33235241  0.45994279     0.25900
C1883       C  0.90540394  0.36055893  0.45283368    -0.11800
C1884       C  0.93171234  0.37377339  0.43938307    -0.25800
C1885       C  0.94524768  0.35901524  0.43469467     0.36800
C1886       C  0.93217001  0.33109806  0.44253037    -0.27500
F1887       F  0.86548093  0.31967355  0.47078442    -0.19600
H1888       H  0.89463847  0.37165199  0.45648679     0.16100
F1889       F  0.97111204  0.37157939  0.42251960    -0.23300
H1890       H  0.94315525  0.32023304  0.43891879     0.17900
C1891       C  0.73231389  0.09460616  0.46205095    -0.27400
C1892       C  0.71594221  0.10459032  0.47368683     0.06300
C1893       C  0.72898677  0.12904206  0.49140084     0.25900
C1894       C  0.75812754  0.14399349  0.49590959    -0.11800
C1895       C  0.77477514  0.13489556  0.48283977    -0.25800
C1896       C  0.76140000  0.10963078  0.46624621     0.36700
C1897       C  0.68588324  0.09062644  0.46529821     0.06300
F1898       F  0.71388860  0.13942110  0.50297283    -0.19600
H1899       H  0.76780191  0.16313920  0.50901938     0.16100
F1900       F  0.77649614  0.10040137  0.45223929    -0.23300
H1901       H  0.72265716  0.07561403  0.44867901     0.17900
C1902       C  0.67795893  0.08449399  0.43623156     0.25900
C1903       C  0.64980048  0.07182152  0.42818928    -0.11800
C1904       C  0.62891844  0.06539698  0.44877495    -0.25800
C1905       C  0.63675749  0.07139766  0.47791455     0.36800
C1906       C  0.66501052  0.08379518  0.48602429    -0.27500
F1907       F  0.69756327  0.09166439  0.41541519    -0.19600
H1908       H  0.64446834  0.06768793  0.40561351     0.16100
F1909       F  0.61726827  0.06502857  0.49863646    -0.23300
H1910       H  0.66756421  0.08583494  0.01086496     0.17900
C1911       C  0.85158007  0.15726260  0.47942092     0.04000
C1912       C  0.82261711  0.14141885  0.48563698    -0.12200
C1913       C  0.80599696  0.15314691  0.48377697     0.01500
C1914       C  0.81923542  0.18202916  0.47933944    -0.10700
C1915       C  0.84829798  0.19846931  0.47473059     0.04000
C1916       C  0.86413538  0.18585273  0.47378389    -0.10100
H1917       H  0.81263253  0.11952662  0.49078169     0.09600
H1918       H  0.80682688  0.19152388  0.47779266     0.07100
H1919       H  0.88610195  0.19839190  0.46792039     0.07000
C1920       C  0.84582170  0.14958416  0.57058504     0.04000
C1921       C  0.86107239  0.17895804  0.56894619    -0.12200
C1922       C  0.84712927  0.19331148  0.56532695     0.01500
C1923       C  0.81765330  0.17759318  0.56230767    -0.10700
C1924       C  0.80200169  0.14835782  0.56527102     0.04000
C1925       C  0.81629580  0.13438815  0.56887603    -0.10100
H1926       H  0.88366099  0.19059834  0.57223043     0.09600
H1927       H  0.80664192  0.18827325  0.55879283     0.07100
H1928       H  0.80448529  0.11185756  0.57136097     0.07000
C1929       C  0.63959508  0.34661517  0.81297855     0.04000
C1930       C  0.66913008  0.36189537  0.81539546    -0.12200
C1931       C  0.68384550  0.34797763  0.81516382     0.01500
C1932       C  0.66871876  0.31852876  0.81303919    -0.10700
C1933       C  0.63923404  0.30297383  0.81055945     0.04000
C1934       C  0.62510309  0.31734639  0.80921371    -0.10100
H1935       H  0.68062767  0.38451430  0.81851405     0.09600
H1936       H  0.67985923  0.30779664  0.81532032     0.07100
H1937       H  0.60242569  0.30553584  0.80671354     0.07000
C1938       C  0.64426465  0.35611595  0.72129958     0.04000
C1939       C  0.67380146  0.37135201  0.72332854    -0.12200
C1940       C  0.68817679  0.35803148  0.72973212     0.01500
C1941       C  0.67275964  0.32899691  0.73377401    -0.10700
C1942       C  0.64333985  0.31298426  0.73061574     0.04000
C1943       C  0.62920176  0.32685660  0.72509831    -0.10100
H1944       H  0.68585002  0.39333655  0.71819435     0.09600
H1945       H  0.68385817  0.31861662  0.73836420     0.07100
H1946       H  0.60656006  0.31470952  0.72245491     0.07000
C1947       C  0.54331901  0.45230760  0.85977103     0.43300
N1948       N  0.51128375  0.46221724  0.86464331     0.02200
C1949       C  0.53461910  0.09413032  0.89976882    -0.05700
H1950       H  0.57437387  0.06031755  0.97518666     0.07700
C1951       C  0.96862767  0.47690233  0.98951806    -0.06000
Co1952     Co  0.53937433  0.02572267  0.87270250     0.74200
N1953       N  0.55490162  0.04326612  0.93400611    -0.25200
Co1954     Co  0.51724974  0.04211161  0.93548379     0.74100
C1955       C  0.99283006  0.49839222  0.50712288     0.43400
N1956       N  0.94928530  0.43974028  0.92289114     0.01800
N1957       N  0.00303789  0.01456772  0.96894835     0.01900
N1958       N  0.54933074  0.08329486  0.85878995    -0.46000
H1959       H  0.57854453  0.49938022  0.86331941     0.07700
N1960       N  0.56352707  0.03709559  0.91011599     0.02200
N1961       N  0.97953124  0.04084074  0.93653760     0.02000
C1962       C  0.94867081  0.05178055  0.94302199     0.43600
N1963       N  0.95867221  0.43360308  0.89949197    -0.24700
C1964       C  0.52016066  0.02646683  0.81077468    -0.05600
N1965       N  0.51517285  0.44109793  0.86033097    -0.45800
N1966       N  0.97658324  0.06246562  0.94142671    -0.46000
C1967       C  0.99623595  0.00729752  0.79262741     0.43300
N1968       N  0.53960045  0.06282316  0.87725994     0.02200
N1969       N  0.93460818  0.45832309  0.86553749    -0.24700
N1970       N  0.53519889  0.48677573  0.86654393    -0.25200
N1971       N  0.92598337  0.46532517  0.88895166     0.01800
H1972       H  0.91483424  0.44026678  0.82447873     0.07700
H1973       H  0.91217642  0.00545779  0.93945597     0.07800
N1974       N  0.53111093  0.06880159  0.90136989    -0.25200
N1975       N  0.97409022  0.48887047  0.96393469    -0.24800
N1976       N  0.98731515  0.48755836  0.83075297     0.02200
C1977       C  0.59789217  0.05129617  0.93974410     0.43600
C1978       C  0.95526601  0.40833390  0.90220760    -0.06100
N1979       N  0.95522883  0.01663594  0.93489251    -0.24800
H1980       H  0.94951253  0.45766121  0.99522754     0.07800
N1981       N  0.58926178  0.04193012  0.91249623    -0.46100
H1982       H  0.95988419  0.39718729  0.88599714     0.07700
C1983       C  0.89194981  0.45094056  0.85898351     0.43400
C1984       C  0.55661941  0.48274004  0.86381619    -0.05600
Co1985     Co  0.97275279  0.45999292  0.86471063     0.73800
N1986       N  0.93872213  0.41945381  0.94159955    -0.45800
C1987       C  0.54682182  0.10377955  0.87157125     0.43700
N1988       N  0.97630072  0.48205473  0.80465053    -0.45800
Co1989     Co  0.94945671  0.47672079  0.92684623     0.73900
C1990       C  0.93438536  0.02138331  0.93876271    -0.06100
C1991       C  0.57507900  0.05231218  0.95402703    -0.05600
N1992       N  0.51447999  0.01391096  0.83600161    -0.25200
N1993       N  0.51458751  0.01973454  0.99453294    -0.45900
H1994       H  0.52976528  0.10451533  0.91663804     0.07700
C1995       C  0.91435873  0.44872028  0.84547191    -0.06100
Cl1996     Cl  0.99649260  0.00226648  0.90163373    -0.49100
C1997       C  0.94222003  0.39917562  0.93020474     0.43500
H1998       H  0.53934958  0.04581584  0.80548268     0.07700
N1999       N  0.90047167  0.46098237  0.88602932    -0.45800
C2000       C  0.59807445  0.05117471  0.61439109     0.43300
N2001       N  0.55796490  0.04547818  0.62441753     0.02200
C2002       C  0.97212334  0.48074768  0.73928924    -0.05700
H2003       H  0.49284879  0.41659087  0.67508754     0.07700
C2004       C  0.93877528  0.42294563  0.59572970    -0.06000
Co2005     Co  0.53856225  0.02441491  0.68328512     0.74200
N2006       N  0.50602822  0.46021335  0.67548362    -0.25200
Co2007     Co  0.96906843  0.46052031  0.67619542     0.74100
C2008       C  0.94073916  0.40064558  0.60871622     0.43400
N2009       N  0.97743739  0.49498967  0.58093841     0.01800
N2010       N  0.95536427  0.43549354  0.63882684     0.01900
N2011       N  0.51795059  0.02332028  0.74471044    -0.46000
H2012       H  0.60061809  0.03492153  0.65825637     0.07700
N2013       N  0.53097685  0.48376798  0.67598727     0.02200
N2014       N  0.93251941  0.46189439  0.67564184     0.02000
C2015       C  0.89297383  0.45763369  0.68581721     0.43600
N2016       N  0.50798773  0.02074388  0.58616961    -0.24700
C2017       C  0.55080178  0.08342606  0.70407250    -0.05600
N2018       N  0.57762754  0.05457364  0.60445131    -0.45800
N2019       N  0.91314113  0.45374816  0.69589952    -0.46000
C2020       C  0.54848370  0.10555794  0.69142917     0.43300
N2021       N  0.51168988  0.01167608  0.71855992     0.02200
N2022       N  0.98452697  0.04650449  0.62146438    -0.24700
N2023       N  0.56441249  0.03677489  0.64722824    -0.25200
N2024       N  0.95967499  0.02289637  0.62019727     0.01800
H2025       H  0.99790631  0.08990674  0.61771350     0.07700
H2026       H  0.89057208  0.47327348  0.64154306     0.07800
N2027       N  0.98347030  0.48598921  0.71310945    -0.25200
N2028       N  0.94831898  0.44358996  0.61597888    -0.24800
N2029       N  0.53433240  0.07121875  0.66083012     0.02200
C2030       C  0.54006110  0.45122436  0.67548325     0.43600
C2031       C  0.51991884  0.02540713  0.56028209    -0.06100
N2032       N  0.92596120  0.47030700  0.65266581    -0.24800
H2033       H  0.93104202  0.42345632  0.57482921     0.07800
N2034       N  0.55194631  0.47935352  0.67615437    -0.46100
H2035       H  0.53953981  0.04401246  0.55437098     0.07700
C2036       C  0.95071453  0.05516005  0.61530568     0.43400
C2037       C  0.58939062  0.03939112  0.64286043    -0.05600
Co2038     Co  0.52150901  0.04651180  0.62302681     0.73800
N2039       N  0.97130593  0.48284255  0.55502330    -0.45800
C2040       C  0.99534221  0.00692081  0.76132185     0.43700
N2041       N  0.53837101  0.09657211  0.66453121    -0.45800
Co2042     Co  0.95097384  0.48217455  0.61628898     0.73900
C2043       C  0.90147004  0.46854127  0.65708279    -0.06100
C2044       C  0.50958348  0.43848411  0.67518736    -0.05600
N2045       N  0.54138834  0.06300605  0.68362846    -0.25200
N2046       N  0.95111949  0.41003848  0.63544547    -0.45900
H2047       H  0.95262957  0.46200498  0.74520462     0.07700
C2048       C  0.98107372  0.06810929  0.61868732    -0.06100
Cl2049     Cl  0.99714611  0.00433169  0.65177425    -0.49100
C2050       C  0.99356852  0.49949844  0.53840685     0.43500
H2051       H  0.55866579  0.08297069  0.72494008     0.07700
N2052       N  0.93888577  0.02711463  0.61633875    -0.45800
C2053       C  0.56015954  0.17809734  0.70248589    -0.27400
C2054       C  0.58459528  0.19163272  0.71950440     0.06300
C2055       C  0.59573954  0.17608152  0.72921046     0.25900
C2056       C  0.58302485  0.14761942  0.72126933    -0.11800
C2057       C  0.55951404  0.13446880  0.70285426    -0.25800
C2058       C  0.54785112  0.14983581  0.69394851     0.36700
C2059       C  0.59994649  0.22247375  0.72432118     0.06300
F2060       F  0.61929771  0.18863075  0.74581501    -0.19600
H2061       H  0.59239904  0.13625492  0.72842204     0.16100
F2062       F  0.52479707  0.13764774  0.67663455    -0.23300
H2063       H  0.55137015  0.18980099  0.69471732     0.17900
C2064       C  0.62669671  0.23945208  0.71234991     0.25900
C2065       C  0.64054597  0.26863216  0.71486378    -0.11800
C2066       C  0.62821336  0.28169353  0.72956108    -0.25800
C2067       C  0.60139444  0.26457696  0.74179785     0.36800
C2068       C  0.58740025  0.23521623  0.73905260    -0.27500
F2069       F  0.63891547  0.22778302  0.69705913    -0.19600
H2070       H  0.66073451  0.28105968  0.70447033     0.16100
F2071       F  0.58881900  0.27607790  0.75666892    -0.23300
H2072       H  0.56672408  0.22237388  0.74838647     0.17900
C2073       C  0.76531889  0.41566122  0.73949846    -0.27400
C2074       C  0.77839790  0.40439912  0.72318886     0.06300
C2075       C  0.76198187  0.37763578  0.71011795     0.25900
C2076       C  0.73276346  0.36249701  0.71291994    -0.11800
C2077       C  0.71938817  0.37379462  0.72879639    -0.25800
C2078       C  0.73598335  0.40045868  0.74240661     0.36700
C2079       C  0.80880387  0.42135119  0.71736513     0.06300
F2080       F  0.77417947  0.36671347  0.69356061    -0.19600
H2081       H  0.72048827  0.34226570  0.70185513     0.16100
F2082       F  0.72386783  0.41175853  0.75848514    -0.23300
H2083       H  0.77781059  0.43636533  0.74956490     0.17900
C2084       C  0.81881846  0.44121857  0.69591315     0.25900
C2085       C  0.84669520  0.45405136  0.68686772    -0.11800
C2086       C  0.86502510  0.44715133  0.69892533    -0.25800
C2087       C  0.85535843  0.42845870  0.72171154     0.36800
C2088       C  0.82731629  0.41548876  0.73065333    -0.27500
F2089       F  0.80114864  0.44693139  0.68253517    -0.19600
H2090       H  0.85356584  0.46868567  0.66968999     0.16100
F2091       F  0.87243515  0.42154282  0.73432700    -0.23300
H2092       H  0.81974957  0.40012815  0.74722255     0.17900
C2093       C  0.62397552  0.41061007  0.71490863    -0.27400
C2094       C  0.60071849  0.39662045  0.69633294     0.06300
C2095       C  0.59226907  0.36965351  0.68544753     0.25900
C2096       C  0.60646906  0.35671458  0.69364392    -0.11800
C2097       C  0.62941694  0.37034842  0.71284570    -0.25800
C2098       C  0.63824960  0.39775241  0.72309999     0.36700
C2099       C  0.58496357  0.41001855  0.68918943     0.06300
F2100       F  0.57059048  0.35601278  0.66646212    -0.19600
H2101       H  0.59973015  0.33613479  0.68447865     0.16100
F2102       F  0.66035172  0.41211380  0.74142849    -0.23300
H2103       H  0.63077539  0.43139672  0.72357315     0.17900
C2104       C  0.55579054  0.39597505  0.69372620     0.25900
C2105       C  0.54125723  0.40924695  0.68843082    -0.11800
C2106       C  0.55553597  0.43689256  0.67888868    -0.25800
C2107       C  0.58469474  0.45085294  0.67393521     0.36800
C2108       C  0.59923346  0.43747527  0.67910947    -0.27500
F2109       F  0.54153070  0.36989677  0.70460030    -0.19600
H2110       H  0.51892804  0.39809237  0.69278411     0.16100
F2111       F  0.59915733  0.47736664  0.66412236    -0.23300
H2112       H  0.62170977  0.44859946  0.67539290     0.17900
C2113       C  0.57961945  0.18222235  0.86827698    -0.27400
C2114       C  0.58235181  0.18623927  0.83865110     0.06300
C2115       C  0.57354103  0.16294546  0.81986255     0.25900
C2116       C  0.56201327  0.13610468  0.83070819    -0.11800
C2117       C  0.55880386  0.13211070  0.86036797    -0.25800
C2118       C  0.56782393  0.15551450  0.87910234     0.36700
C2119       C  0.59467557  0.21495719  0.82806660     0.06300
F2120       F  0.57538513  0.16601658  0.79110770    -0.19600
H2121       H  0.55523900  0.11838549  0.81592162     0.16100
F2122       F  0.56630907  0.15299253  0.90794723    -0.23300
H2123       H  0.58696875  0.19995234  0.88318220     0.17900
C2124       C  0.58528404  0.23211200  0.83907113     0.25900
C2125       C  0.59931480  0.26031188  0.83234969    -0.11800
C2126       C  0.62284948  0.27210397  0.81422031    -0.25800
C2127       C  0.63138108  0.25456430  0.80195074     0.36800
C2128       C  0.61737154  0.22621798  0.80890088    -0.27500
F2129       F  0.56291031  0.22176469  0.85700882    -0.19600
H2130       H  0.59236990  0.27320151  0.84245800     0.16100
F2131       F  0.65338579  0.26481249  0.78357505    -0.23300
H2132       H  0.62497378  0.21336291  0.80022394     0.17900
C2133       C  0.76152907  0.37477516  0.80658505    -0.27400
C2134       C  0.77347161  0.39335965  0.83044790     0.06300
C2135       C  0.75554585  0.39694221  0.84909953     0.25900
C2136       C  0.72659616  0.38266579  0.84358903    -0.11800
C2137       C  0.71474426  0.36390137  0.81994489    -0.25800
C2138       C  0.73244899  0.35973907  0.80172352     0.36700
C2139       C  0.80439540  0.40857250  0.83601304     0.06300
F2140       F  0.76578295  0.41344274  0.87325372    -0.19600
H2141       H  0.71324739  0.38562403  0.85833875     0.16100
F2142       F  0.72167167  0.34124995  0.77909390    -0.23300
H2143       H  0.77471787  0.37186516  0.79158534     0.17900
C2144       C  0.81918377  0.39470065  0.83324505     0.25900
C2145       C  0.84802309  0.40905984  0.83942643    -0.11800
C2146       C  0.86246671  0.43714966  0.84930880    -0.25800
C2147       C  0.84797437  0.45116079  0.85183914     0.36800
C2148       C  0.81934233  0.43712465  0.84476988    -0.27500
F2149       F  0.80557677  0.36691278  0.82601080    -0.19600
H2150       H  0.85881589  0.39781670  0.83778079     0.16100
F2151       F  0.86156599  0.47846683  0.86100406    -0.23300
H2152       H  0.80878678  0.44858768  0.84638269     0.17900
C2153       C  0.58591578  0.36364054  0.84016575    -0.27400
C2154       C  0.59515411  0.38934504  0.82741132     0.06300
C2155       C  0.61844406  0.40036755  0.80889269     0.25900
C2156       C  0.63261690  0.38628861  0.80407790    -0.11800
C2157       C  0.62360757  0.36075606  0.81710174    -0.25800
C2158       C  0.59988990  0.34945097  0.83514002     0.37900
C2159       C  0.58168371  0.40538440  0.83518480     0.06300
F2160       F  0.62751822  0.42476601  0.79548762    -0.19600
H2161       H  0.65084832  0.39542304  0.79037160     0.16100
F2162       F  0.59109042  0.32548461  0.84929034    -0.23300
H2163       H  0.56844888  0.35501539  0.85496621     0.17900
C2164       C  0.55223410  0.39252072  0.83482985     0.25900
C2165       C  0.54001910  0.40785435  0.84316490    -0.11800
C2166       C  0.55682401  0.43626610  0.85210039    -0.25800
C2167       C  0.58629161  0.44890785  0.85293478     0.36800
C2168       C  0.59844608  0.43360638  0.84446675    -0.27500
F2169       F  0.53527105  0.36528087  0.82593020    -0.19600
H2170       H  0.51731350  0.39748178  0.84234024     0.16100
F2171       F  0.60358022  0.47586184  0.86237985    -0.23300
H2172       H  0.62111237  0.44374237  0.84572150     0.17900
C2173       C  0.86987459  0.10599910  0.60553951    -0.27400
C2174       C  0.89087212  0.10894817  0.58654809     0.06300
C2175       C  0.89657149  0.12494919  0.56204478     0.25900
C2176       C  0.88190786  0.13823755  0.55713681    -0.11800
C2177       C  0.86084294  0.13511100  0.57601555    -0.25800
C2178       C  0.85489380  0.11886360  0.60031141     0.36700
C2179       C  0.90650120  0.09518163  0.59269830     0.06300
F2180       F  0.91583076  0.12727262  0.54257170    -0.19600
H2181       H  0.88672209  0.15074800  0.53878263     0.16100
F2182       F  0.83531340  0.11624634  0.61949394    -0.23300
H2183       H  0.86535134  0.09402697  0.62465153     0.17900
C2184       C  0.93611138  0.11035892  0.59296022     0.25900
C2185       C  0.95037949  0.09727272  0.60039758    -0.11800
C2186       C  0.93544519  0.06887406  0.60765597    -0.25800
C2187       C  0.90582773  0.05366458  0.60708577     0.36800
C2188       C  0.89159514  0.06677182  0.59973128    -0.27500
F2189       F  0.95128354  0.13805562  0.58700752    -0.19600
H2190       H  0.97315432  0.10951618  0.60049851     0.16100
F2191       F  0.89051380  0.02622072  0.61399919    -0.23300
H2192       H  0.86879108  0.05469382  0.59959202     0.17900
C2193       C  0.89701142  0.32997770  0.56907497    -0.27400
C2194       C  0.90661309  0.31433433  0.58182998     0.06300
C2195       C  0.92868715  0.32763776  0.60192167     0.25900
C2196       C  0.94015899  0.35593171  0.60992122    -0.11800
C2197       C  0.93009200  0.37154452  0.59775901    -0.25800
C2198       C  0.90871808  0.35837102  0.57673622     0.36700
C2199       C  0.89150117  0.28359513  0.57644836     0.06300
F2200       F  0.93815803  0.31289179  0.61482055    -0.19600
H2201       H  0.95660446  0.36552642  0.62610480     0.16100
F2202       F  0.89791179  0.37228385  0.56471120    -0.23300
H2203       H  0.87983419  0.31991202  0.55370769     0.17900
C2204       C  0.86429887  0.26637931  0.58730500     0.25900
C2205       C  0.85021227  0.23726566  0.58351667    -0.11800
C2206       C  0.86261052  0.22457347  0.56820956    -0.25800
C2207       C  0.88975223  0.24200261  0.55672850     0.36800
C2208       C  0.90413481  0.27125915  0.56113536    -0.27500
F2209       F  0.85163584  0.27774937  0.60230771    -0.19600
H2210       H  0.82967130  0.22461022  0.59315403     0.16100
F2211       F  0.90206690  0.23093211  0.54061927    -0.23300
H2212       H  0.92502112  0.28434345  0.55236222     0.17900
C2213       C  0.66408900  0.09654378  0.57117085    -0.27400
C2214       C  0.68152315  0.08746586  0.58055244     0.06300
C2215       C  0.67072721  0.06506369  0.59925179     0.25900
C2216       C  0.64322534  0.05274456  0.60945287    -0.11800
C2217       C  0.62594663  0.06235452  0.60091501    -0.25800
C2218       C  0.63633255  0.08384575  0.58088872     0.36700
C2219       C  0.71188369  0.10366233  0.57414155     0.06300
F2220       F  0.68736603  0.05621656  0.60892647    -0.19600
H2221       H  0.63566801  0.03606831  0.62457006     0.16100
F2222       F  0.62031051  0.09368419  0.57191598    -0.23300
H2223       H  0.67228889  0.11403334  0.55696104     0.17900
C2224       C  0.72414250  0.09262301  0.55607941     0.25900
C2225       C  0.75347289  0.10727052  0.55287955    -0.11800
C2226       C  0.77085269  0.13309498  0.56765437    -0.25800
C2227       C  0.75830330  0.14394104  0.58574381     0.36800
C2228       C  0.72912100  0.12945550  0.58865198    -0.27500
F2229       F  0.70775268  0.06767096  0.54177947    -0.19600
H2230       H  0.76262153  0.09852584  0.53883864     0.16100
F2231       F  0.77430788  0.16781217  0.60187363    -0.23300
H2232       H  0.71995943  0.13785114  0.60317454     0.17900
C2233       C  0.90043032  0.07236749  0.97686901    -0.27400
C2234       C  0.91093225  0.09891836  0.96554109     0.06300
C2235       C  0.93485733  0.11052339  0.94797371     0.25900
C2236       C  0.94745871  0.09526362  0.94118775    -0.11800
C2237       C  0.93611836  0.06818225  0.95149317    -0.25800
C2238       C  0.91283204  0.05703736  0.96988601     0.36700
C2239       C  0.89558725  0.11335566  0.97060151     0.06300
F2240       F  0.94516747  0.13594973  0.93630810    -0.19600
H2241       H  0.96552127  0.10420389  0.92711679     0.16100
F2242       F  0.90235288  0.03158136  0.98153010    -0.23300
H2243       H  0.88231080  0.06335601  0.99085524     0.17900
C2244       C  0.86702232  0.09971069  0.96313246     0.25900
C2245       C  0.85240709  0.11324386  0.96744348    -0.11800
C2246       C  0.86577075  0.14062093  0.97963450    -0.25800
C2247       C  0.89461458  0.15435182  0.98698189     0.36800
C2248       C  0.90927772  0.14074061  0.98246882    -0.27500
F2249       F  0.85344414  0.07354009  0.95073902    -0.19600
H2250       H  0.83066685  0.10237858  0.96045230     0.16100
F2251       F  0.90861118  0.18058673  0.99919028    -0.23300
H2252       H  0.93130290  0.15148175  0.98850124     0.17900
C2253       C  0.87478444  0.27561090  0.48476396    -0.27400
C2254       C  0.88744959  0.28383090  0.96232111     0.06300
C2255       C  0.88974517  0.26557367  0.94264847     0.25900
C2256       C  0.87633626  0.23700353  0.94789927    -0.11800
C2257       C  0.85965155  0.22588888  0.97229351    -0.25800
C2258       C  0.86030665  0.24680638  0.48933000     0.36700
C2259       C  0.90235110  0.31438423  0.95711153     0.06300
F2260       F  0.90435359  0.27516683  0.91792890    -0.19600
H2261       H  0.87857312  0.22340148  0.93261516     0.16100
F2262       F  0.84499300  0.23673376  0.51353713    -0.23300
H2263       H  0.87409342  0.28932058  0.50112643     0.17900
C2264       C  0.88869795  0.32930081  0.96068472     0.25900
C2265       C  0.90238294  0.35744928  0.95322194    -0.11800
C2266       C  0.92947724  0.37087595  0.94145186    -0.25800
C2267       C  0.94352177  0.35644864  0.93891101     0.36800
C2268       C  0.93023745  0.32862636  0.94714681    -0.27500
F2269       F  0.86163448  0.31635166  0.96976639    -0.19600
H2270       H  0.89124561  0.36832219  0.95524697     0.16100
F2271       F  0.97009371  0.36926620  0.92844105    -0.23300
H2272       H  0.94161134  0.31800740  0.94517197     0.17900
C2273       C  0.72946253  0.09102388  0.96716015    -0.27400
C2274       C  0.71353481  0.10213561  0.97708160     0.06300
C2275       C  0.72689658  0.12746678  0.99334054     0.25900
C2276       C  0.75601909  0.14222140  0.99791971    -0.11800
C2277       C  0.77238916  0.13209306  0.98629206    -0.25800
C2278       C  0.75855287  0.10580248  0.97144784     0.36700
C2279       C  0.68371090  0.08848890  0.96804302     0.06300
F2280       F  0.71213546  0.13883629  0.00327902    -0.19600
H2281       H  0.76588636  0.16201393  0.00994178     0.16100
F2282       F  0.77315127  0.09521118  0.95906078    -0.23300
H2283       H  0.71946560  0.07135471  0.95487250     0.17900
C2284       C  0.67648100  0.08261053  0.93881868     0.25900
C2285       C  0.64851112  0.07007251  0.93004388    -0.11800
C2286       C  0.62713987  0.06341831  0.95009130    -0.25800
C2287       C  0.63435016  0.06925065  0.97942403     0.36800
C2288       C  0.66242862  0.08168065  0.98823141    -0.27500
F2289       F  0.69663750  0.08985556  0.91860252    -0.19600
H2290       H  0.64368487  0.06612180  0.90734192     0.16100
F2291       F  0.61439925  0.06263270  0.99968275    -0.23300
H2292       H  0.67059630  0.08794823  0.50851563     0.17900
C2293       C  0.84643248  0.65410094  0.98004595     0.04000
C2294       C  0.81735606  0.63831548  0.98577027    -0.12200
C2295       C  0.80100460  0.65042667  0.98455936     0.01500
C2296       C  0.81471113  0.67957529  0.98134420    -0.10700
C2297       C  0.84391917  0.69596480  0.97741935     0.04000
C2298       C  0.85948398  0.68302668  0.97601611    -0.10100
H2299       H  0.80713339  0.61616251  0.98984072     0.09600
H2300       H  0.80256938  0.68936329  0.97999159     0.07100
H2301       H  0.88158230  0.69553179  0.97065338     0.07000
C2302       C  0.84441146  0.65178005  0.07068132     0.04000
C2303       C  0.86024571  0.68114415  0.06908327    -0.12200
C2304       C  0.84690746  0.69610720  0.06599152     0.01500
C2305       C  0.81740545  0.68113343  0.06353923    -0.10700
C2306       C  0.80118941  0.65187303  0.06619088     0.04000
C2307       C  0.81491399  0.63725608  0.06913762    -0.10100
H2308       H  0.88285651  0.69237446  0.07212283     0.09600
H2309       H  0.80691870  0.69242818  0.06062190     0.07100
H2310       H  0.80265870  0.61469084  0.07128391     0.07000
C2311       C  0.64526522  0.85145745  0.31422233     0.04000
C2312       C  0.67470681  0.86636131  0.31785014    -0.12200
C2313       C  0.68913166  0.85219138  0.31805833     0.01500
C2314       C  0.67386346  0.82279071  0.31561499    -0.10700
C2315       C  0.64450168  0.80748249  0.31203128     0.04000
C2316       C  0.63072338  0.82216091  0.30973661    -0.10100
H2317       H  0.68643724  0.88890421  0.32159580     0.09600
H2318       H  0.68477489  0.81189902  0.31843974     0.07100
H2319       H  0.60826184  0.81046334  0.30578705     0.07000
C2320       C  0.64610654  0.85555299  0.22537383     0.04000
C2321       C  0.67568506  0.87125847  0.22707329    -0.12200
C2322       C  0.69060726  0.85822679  0.23236307     0.01500
C2323       C  0.67567966  0.82908172  0.23579757    -0.10700
C2324       C  0.64622397  0.81276291  0.23309800     0.04000
C2325       C  0.63159277  0.82629999  0.22871748    -0.10100
H2326       H  0.68731188  0.89335347  0.22238443     0.09600
H2327       H  0.68716277  0.81888507  0.23940358     0.07100
H2328       H  0.60891995  0.81385115  0.22638924     0.07000
C2329       C  0.54777720  0.95568480  0.36240045     0.43300
N2330       N  0.51579656  0.96557254  0.36764339     0.02200
C2331       C  0.53319937  0.59620425  0.39712447    -0.05700
H2332       H  0.57082302  0.56120089  0.47234968     0.07700
C2333       C  0.97443603  0.98087600  0.49314961    -0.06000
Co2334     Co  0.53667967  0.52721111  0.36939328     0.74200
N2335       N  0.55148858  0.54432858  0.43100957    -0.25200
Co2336     Co  0.51378109  0.54310621  0.43203792     0.74100
C2337       C  0.99716694  0.99788266  0.01070854     0.43400
N2338       N  0.95456209  0.94379575  0.42712027     0.01800
N2339       N  0.99927576  0.51529105  0.46539173     0.01900
N2340       N  0.54802113  0.58540752  0.35621915    -0.46000
H2341       H  0.58312566  0.00255153  0.36537388     0.07700
N2342       N  0.56029075  0.53833112  0.40712254     0.02200
N2343       N  0.97595949  0.54141903  0.43235244     0.02000
C2344       C  0.94461699  0.55197369  0.43685242     0.43600
N2345       N  0.96352599  0.93727507  0.40364825    -0.24700
C2346       C  0.51809361  0.52772169  0.30690867    -0.05600
N2347       N  0.51962165  0.94441266  0.36316521    -0.45800
N2348       N  0.97263235  0.56290569  0.43626566    -0.46000
C2349       C  0.99455016  0.50822184  0.28853379     0.43300
N2350       N  0.53691770  0.56433742  0.37406083     0.02200
N2351       N  0.93932845  0.96203182  0.37000526    -0.24700
N2352       N  0.53975688  0.99013358  0.36919467    -0.25200
N2353       N  0.93121511  0.96949698  0.39347223     0.01800
H2354       H  0.91876452  0.94337870  0.32941439     0.07700
H2355       H  0.90853136  0.50546766  0.43254145     0.07800
N2356       N  0.52834297  0.57026190  0.39816133    -0.25200
N2357       N  0.98007808  0.99299747  0.46768023    -0.24800
N2358       N  0.99130193  0.99058428  0.33438291     0.02200
C2359       C  0.59449110  0.55242076  0.43688593     0.43600
C2360       C  0.95978497  0.91187693  0.40652669    -0.06100
N2361       N  0.95181168  0.51708725  0.43034598    -0.24800
H2362       H  0.95516033  0.96175604  0.49876370     0.07800
N2363       N  0.58600027  0.54319740  0.40961046    -0.46100
H2364       H  0.96390371  0.90039917  0.39024818     0.07700
C2365       C  0.89665987  0.95476371  0.36416669     0.43400
C2366       C  0.56113676  0.98606257  0.36626212    -0.05600
Co2367     Co  0.97725234  0.96334034  0.36855130     0.73800
N2368       N  0.94405611  0.92371043  0.44605013    -0.45800
C2369       C  0.54635977  0.60627267  0.36932928     0.43700
N2370       N  0.97976667  0.98489494  0.30851645    -0.45800
Co2371     Co  0.95517179  0.98101146  0.43094350     0.73900
C2372       C  0.93070537  0.52157748  0.43289769    -0.06100
C2373       C  0.57157795  0.55328585  0.45115069    -0.05600
N2374       N  0.51217316  0.51539519  0.33231446    -0.25200
N2375       N  0.51022897  0.52046317  0.49122755    -0.45900
H2376       H  0.52904983  0.60689706  0.41427824     0.07700
C2377       C  0.91873976  0.95222678  0.35032464    -0.06100
Cl2378     Cl  0.99371613  0.50335413  0.39787123    -0.49100
C2379       C  0.94704958  0.90307738  0.43475177     0.43500
H2380       H  0.53732520  0.54702254  0.30161457     0.07700
N2381       N  0.90569273  0.96521223  0.39099583    -0.45800
C2382       C  0.59517622  0.55166449  0.10992452     0.43300
N2383       N  0.55430626  0.54430719  0.11931465     0.02200
C2384       C  0.97469494  0.98309413  0.24305947    -0.05700
H2385       H  0.49337509  0.91655655  0.18064859     0.07700
C2386       C  0.94218415  0.92490087  0.09935573    -0.06000
Co2387     Co  0.53549307  0.52363067  0.17850054     0.74200
N2388       N  0.50782361  0.96050159  0.18038376    -0.25200
Co2389     Co  0.97154098  0.96202142  0.18013056     0.74100
C2390       C  0.94337985  0.90229592  0.11260512     0.43400
N2391       N  0.98186535  0.99603135  0.08434793     0.01800
N2392       N  0.95774248  0.93694354  0.14285201     0.01900
N2393       N  0.51592836  0.52349216  0.24031683    -0.46000
H2394       H  0.59785901  0.53539349  0.15363070     0.07700
N2395       N  0.53309424  0.98364659  0.18097832     0.02200
N2396       N  0.93574261  0.96451880  0.17876893     0.02000
C2397       C  0.89605393  0.96021582  0.18809662     0.43600
N2398       N  0.50330911  0.51882616  0.08199364    -0.24700
C2399       C  0.54956464  0.58339690  0.19850719    -0.05600
N2400       N  0.57444804  0.55454682  0.09979242    -0.45800
N2401       N  0.91599064  0.95623985  0.19859241    -0.46000
C2402       C  0.54810197  0.60592843  0.18560956     0.43300
N2403       N  0.50921727  0.51150436  0.21430544     0.02200
N2404       N  0.98102486  0.54566412  0.11754058    -0.24700
N2405       N  0.56086608  0.53561938  0.14207825    -0.25200
N2406       N  0.95604531  0.52218870  0.11674399     0.01800
H2407       H  0.99469368  0.58915313  0.11413886     0.07700
H2408       H  0.89430409  0.97591018  0.14364572     0.07800
N2409       N  0.98613010  0.98773177  0.21691263    -0.25200
N2410       N  0.95145339  0.94534997  0.11972834    -0.24800
N2411       N  0.53167088  0.57066266  0.15583329     0.02200
C2412       C  0.54090088  0.95022625  0.18143207     0.43600
C2413       C  0.51483714  0.52258904  0.05597449    -0.06100
N2414       N  0.92967562  0.97308658  0.15557706    -0.24800
H2415       H  0.93525709  0.92588467  0.07819624     0.07800
N2416       N  0.55349535  0.97845074  0.18174961    -0.46100
H2417       H  0.53457551  0.54076981  0.04956913     0.07700
C2418       C  0.94734773  0.55473620  0.11270214     0.43400
C2419       C  0.58625354  0.53913678  0.13800538    -0.05600
Co2420     Co  0.51778681  0.54531956  0.11842295     0.73800
N2421       N  0.97555820  0.98352229  0.05861740    -0.45800
C2422       C  0.99362249  0.50743677  0.25719252     0.43700
N2423       N  0.53699678  0.59655928  0.15907420    -0.45800
Co2424     Co  0.95516713  0.98426077  0.11948401     0.73900
C2425       C  0.90509803  0.97134623  0.15949101    -0.06100
C2426       C  0.51055882  0.93826331  0.18067651    -0.05600
N2427       N  0.53886358  0.56248014  0.17856600    -0.25200
N2428       N  0.95315316  0.91137110  0.13956671    -0.45900
H2429       H  0.95492831  0.96472933  0.24909027     0.07700
C2430       C  0.97774272  0.56741857  0.11523840    -0.06100
Cl2431     Cl  0.99371426  0.50358385  0.14769218    -0.49100
C2432       C  0.99808683  0.99935034  0.04198738     0.43500
H2433       H  0.55808026  0.58311824  0.21904776     0.07700
N2434       N  0.93532245  0.52665430  0.11367241    -0.45800
C2435       C  0.56383132  0.68019082  0.19599831    -0.27400
C2436       C  0.58700991  0.69220946  0.21471721     0.06300
C2437       C  0.59655305  0.67546811  0.22488699     0.25900
C2438       C  0.58316429  0.64712099  0.21620025    -0.11800
C2439       C  0.56055624  0.63524687  0.19661238    -0.25800
C2440       C  0.55085885  0.65203710  0.18673739     0.36700
C2441       C  0.60263369  0.72273756  0.22138965     0.06300
F2442       F  0.61912770  0.68671773  0.24280830    -0.19600
H2443       H  0.59118974  0.63476653  0.22399960     0.16100
F2444       F  0.52895180  0.64130614  0.16800990    -0.23300
H2445       H  0.55640543  0.69292870  0.18778509     0.17900
C2446       C  0.62918010  0.74028220  0.20926766     0.25900
C2447       C  0.64334029  0.76932275  0.21386061    -0.11800
C2448       C  0.63139387  0.78157225  0.23068161    -0.25800
C2449       C  0.60482414  0.76384027  0.24314419     0.36800
C2450       C  0.59060928  0.73465484  0.23845440    -0.27500
F2451       F  0.64086680  0.72936185  0.19192351    -0.19600
H2452       H  0.66334484  0.78234331  0.20332133     0.16100
F2453       F  0.59264589  0.77459616  0.25993779    -0.23300
H2454       H  0.57011527  0.72132121  0.24797609     0.17900
C2455       C  0.76775470  0.91632391  0.24101843    -0.27400
C2456       C  0.78067603  0.90568382  0.22347541     0.06300
C2457       C  0.76415866  0.87920225  0.20983818     0.25900
C2458       C  0.73500957  0.86374617  0.21333093    -0.11800
C2459       C  0.72179436  0.87439610  0.23052273    -0.25800
C2460       C  0.73848912  0.90077645  0.24464694     0.36700
C2461       C  0.81117578  0.92258606  0.21798202     0.06300
F2462       F  0.77618071  0.86876796  0.19229135    -0.19600
H2463       H  0.72264387  0.84372955  0.20189702     0.16100
F2464       F  0.72656159  0.91134651  0.26212322    -0.23300
H2465       H  0.78033326  0.93670588  0.25171757     0.17900
C2466       C  0.82203295  0.94432592  0.19846884     0.25900
C2467       C  0.85007074  0.95734515  0.18974482    -0.11800
C2468       C  0.86774318  0.94902173  0.20052386    -0.25800
C2469       C  0.85721291  0.92839387  0.22147274     0.36800
C2470       C  0.82901979  0.91509347  0.22984013    -0.27500
F2471       F  0.80509975  0.95189700  0.18672569    -0.19600
H2472       H  0.85770379  0.97342861  0.17395436     0.16100
F2473       F  0.87360867  0.91994883  0.23274419    -0.23300
H2474       H  0.82083681  0.89832833  0.24492130     0.17900
C2475       C  0.62319709  0.90813476  0.22103715    -0.27400
C2476       C  0.60000662  0.89398108  0.20232568     0.06300
C2477       C  0.59245833  0.86747270  0.19074924     0.25900
C2478       C  0.60747562  0.85521124  0.19837966    -0.11800
C2479       C  0.63047514  0.86913363  0.21751695    -0.25800
C2480       C  0.63846631  0.89609139  0.22836152     0.36700
C2481       C  0.58434806  0.90744344  0.19483155     0.06300
F2482       F  0.57118428  0.85379488  0.17133279    -0.19600
H2483       H  0.60143567  0.83500384  0.18867653     0.16100
F2484       F  0.66089518  0.91091494  0.24618398    -0.23300
H2485       H  0.62945894  0.92862220  0.23018406     0.17900
C2486       C  0.55482472  0.89295885  0.19676749     0.25900
C2487       C  0.54072868  0.90674435  0.19154401    -0.11800
C2488       C  0.55577094  0.93524204  0.18463050    -0.25800
C2489       C  0.58521211  0.94948173  0.18198671     0.36800
C2490       C  0.59926454  0.93566045  0.18702745    -0.27500
F2491       F  0.53968199  0.86593034  0.20508464    -0.19600
H2492       H  0.51809057  0.89524501  0.19386970     0.16100
F2493       F  0.60053668  0.97682988  0.17473921    -0.23300
H2494       H  0.62196196  0.94713373  0.18508893     0.17900
C2495       C  0.58305034  0.68543362  0.36807701    -0.27400
C2496       C  0.58584642  0.69007485  0.33855868     0.06300
C2497       C  0.57624412  0.66705657  0.31921061     0.25900
C2498       C  0.56352079  0.63980768  0.32937672    -0.11800
C2499       C  0.56008407  0.63514578  0.35892447    -0.25800
C2500       C  0.57036613  0.65832603  0.37824997     0.36700
C2501       C  0.59890916  0.71910178  0.32856783     0.06300
F2502       F  0.57843328  0.67083880  0.29055187    -0.19600
H2503       H  0.55594672  0.62229891  0.31414780     0.16100
F2504       F  0.56916628  0.65509531  0.40698977    -0.23300
H2505       H  0.59100553  0.70296549  0.38334521     0.17900
C2506       C  0.58918302  0.73616912  0.33892415     0.25900
C2507       C  0.60350686  0.76449127  0.33242725    -0.11800
C2508       C  0.62779554  0.77650216  0.31532700    -0.25800
C2509       C  0.63676336  0.75903852  0.30380794     0.36800
C2510       C  0.62235568  0.73056832  0.31038728    -0.27500
F2511       F  0.56609273  0.72554702  0.35588487    -0.19600
H2512       H  0.59616849  0.77729534  0.34190127     0.16100
F2513       F  0.65952502  0.76945445  0.28643199    -0.23300
H2514       H  0.63011827  0.71770871  0.30212150     0.17900
C2515       C  0.76687805  0.87901866  0.31106146    -0.27400
C2516       C  0.77823930  0.89685436  0.33552938     0.06300
C2517       C  0.75991388  0.89985769  0.35410235     0.25900
C2518       C  0.73111766  0.88578801  0.34791926    -0.11800
C2519       C  0.71984857  0.86781074  0.32364885    -0.25800
C2520       C  0.73792860  0.86418464  0.30548033     0.36700
C2521       C  0.80901363  0.91202267  0.34169164     0.06300
F2522       F  0.76961906  0.91561144  0.37876900    -0.19600
H2523       H  0.71742328  0.88830338  0.36257568     0.16100
F2524       F  0.72763440  0.84646841  0.28220056    -0.23300
H2525       H  0.78042983  0.87658062  0.29614381     0.17900
C2526       C  0.82389723  0.89827208  0.33882584     0.25900
C2527       C  0.85270653  0.91270314  0.34506965    -0.11800
C2528       C  0.86701845  0.94074835  0.35508122    -0.25800
C2529       C  0.85236211  0.95456763  0.35799297     0.36800
C2530       C  0.82374031  0.94044880  0.35089151    -0.27500
F2531       F  0.81042543  0.87056514  0.33125483    -0.19600
H2532       H  0.86362031  0.90158842  0.34320328     0.16100
F2533       F  0.86581290  0.98179919  0.36739730    -0.23300
H2534       H  0.81305002  0.95177419  0.35268245     0.17900
C2535       C  0.58982825  0.86779815  0.33735411    -0.27400
C2536       C  0.60160934  0.89528837  0.32817695     0.06300
C2537       C  0.62727733  0.90798794  0.31331665     0.25900
C2538       C  0.64105798  0.89351530  0.30837597    -0.11800
C2539       C  0.62948873  0.86602291  0.31784025    -0.25800
C2540       C  0.60354223  0.85334009  0.33249035     0.37900
C2541       C  0.58789268  0.91103316  0.33608074     0.06300
F2542       F  0.63906853  0.93441347  0.30366978    -0.19600
H2543       H  0.66107499  0.90403419  0.29749597     0.16100
F2544       F  0.59214902  0.82767972  0.34393591    -0.23300
H2545       H  0.57043650  0.85786125  0.34944097     0.17900
C2546       C  0.55913115  0.89956883  0.33045907     0.25900
C2547       C  0.54614384  0.91398477  0.33948424    -0.11800
C2548       C  0.56155436  0.94009935  0.35421569    -0.25800
C2549       C  0.59024535  0.95133508  0.36020985     0.36800
C2550       C  0.60321899  0.93696072  0.35108514    -0.27500
F2551       F  0.54370272  0.87463049  0.31583806    -0.19600
H2552       H  0.52407065  0.90487810  0.33454344     0.16100
F2553       F  0.60564982  0.97574968  0.37565792    -0.23300
H2554       H  0.62518072  0.94579064  0.35636658     0.17900
C2555       C  0.86544410  0.60508579  0.10419334    -0.27400
C2556       C  0.88820287  0.60993200  0.08690245     0.06300
C2557       C  0.89595387  0.62802737  0.06386298     0.25900
C2558       C  0.88157950  0.64153459  0.05880628    -0.11800
C2559       C  0.85882729  0.63667139  0.07601733    -0.25800
C2560       C  0.85081424  0.61827986  0.09882291     0.36700
C2561       C  0.90359242  0.59598416  0.09316720     0.06300
F2562       F  0.91705631  0.63229040  0.04595691    -0.19600
H2563       H  0.88806637  0.65571952  0.04160476     0.16100
F2564       F  0.82963576  0.61396507  0.11662019    -0.23300
H2565       H  0.85931692  0.59143136  0.12218314     0.17900
C2566       C  0.93306888  0.61148709  0.09608850     0.25900
C2567       C  0.94714586  0.59798502  0.10256514    -0.11800
C2568       C  0.93214305  0.56884250  0.10633073    -0.25800
C2569       C  0.90261150  0.55339612  0.10352556     0.36800
C2570       C  0.88856700  0.56692145  0.09705568    -0.27500
F2571       F  0.94821756  0.63978635  0.09349911    -0.19600
H2572       H  0.96982150  0.61050796  0.10470123     0.16100
F2573       F  0.88718856  0.52523410  0.10703567    -0.23300
H2574       H  0.86585196  0.55462330  0.09489622     0.17900
C2575       C  0.90344193  0.83344751  0.06922997    -0.27400
C2576       C  0.90978104  0.81655320  0.08465366     0.06300
C2577       C  0.92851464  0.82830866  0.10793674     0.25900
C2578       C  0.94003582  0.85648817  0.11621078    -0.11800
C2579       C  0.93305202  0.87338677  0.10142555    -0.25800
C2580       C  0.91499264  0.86167097  0.07739687     0.36700
C2581       C  0.89391367  0.78600336  0.07881647     0.06300
F2582       F  0.93461275  0.81218796  0.12342985    -0.19600
H2583       H  0.95391734  0.86491530  0.13471448     0.16100
F2584       F  0.90716385  0.87679746  0.06263873    -0.23300
H2585       H  0.88867765  0.82443898  0.05145414     0.17900
C2586       C  0.86721815  0.76928795  0.09088130     0.25900
C2587       C  0.85212492  0.74025877  0.08629072    -0.11800
C2588       C  0.86317377  0.72726772  0.06925495    -0.25800
C2589       C  0.88990011  0.74421374  0.05674492     0.36800
C2590       C  0.90517169  0.77340732  0.06166024    -0.27500
F2591       F  0.85596413  0.78109424  0.10756130    -0.19600
H2592       H  0.83193330  0.72785958  0.09667264     0.16100
F2593       F  0.90100179  0.73270900  0.03938884    -0.23300
H2594       H  0.92571188  0.78620545  0.05204797     0.17900
C2595       C  0.66410713  0.60306778  0.07400865    -0.27400
C2596       C  0.68043339  0.59176638  0.08040577     0.06300
C2597       C  0.66796825  0.56630263  0.09465147     0.25900
C2598       C  0.63993864  0.55299468  0.10341058    -0.11800
C2599       C  0.62373033  0.56457134  0.09772481    -0.25800
C2600       C  0.63582868  0.58943915  0.08225514     0.36700
C2601       C  0.71102256  0.60778151  0.07478507     0.06300
F2602       F  0.68336163  0.55510402  0.10147100    -0.19600
H2603       H  0.63101736  0.53383119  0.11516975     0.16100
F2604       F  0.62092347  0.60144498  0.07656384    -0.23300
H2605       H  0.67349347  0.62278588  0.06313527     0.17900
C2606       C  0.72334392  0.59653593  0.05710580     0.25900
C2607       C  0.75263387  0.61104227  0.05404894    -0.11800
C2608       C  0.77005711  0.63700145  0.06853392    -0.25800
C2609       C  0.75754146  0.64810274  0.08633066     0.36800
C2610       C  0.72831231  0.63372031  0.08911100    -0.27500
F2611       F  0.70701772  0.57157194  0.04280740    -0.19600
H2612       H  0.76171171  0.60208280  0.04021613     0.16100
F2613       F  0.77357575  0.67209048  0.10229247    -0.23300
H2614       H  0.71916214  0.64233380  0.10335524     0.17900
C2615       C  0.89327369  0.57194961  0.46281062    -0.27400
C2616       C  0.90638086  0.59970000  0.45389847     0.06300
C2617       C  0.93263129  0.61202611  0.44024797     0.25900
C2618       C  0.94513048  0.59641693  0.43502853    -0.11800
C2619       C  0.93153180  0.56834516  0.44315001    -0.25800
C2620       C  0.90564101  0.55633056  0.45749497     0.36700
C2621       C  0.89196008  0.61512087  0.45840770     0.06300
F2622       F  0.94566052  0.63873951  0.43111044    -0.19600
H2623       H  0.96516285  0.60606621  0.42406665     0.16100
F2624       F  0.89257850  0.52979652  0.46710575    -0.23300
H2625       H  0.87333496  0.56235310  0.47394232     0.17900
C2626       C  0.86425221  0.60332025  0.44854026     0.25900
C2627       C  0.84986703  0.61689208  0.45432212    -0.11800
C2628       C  0.86272865  0.64251742  0.47011719    -0.25800
C2629       C  0.89096302  0.65484449  0.47909177     0.36800
C2630       C  0.90531819  0.64111016  0.47336273    -0.27500
F2631       F  0.85121494  0.57877725  0.43293636    -0.19600
H2632       H  0.82864849  0.60741472  0.44606210     0.16100
F2633       F  0.90443190  0.67957245  0.49434527    -0.23300
H2634       H  0.92667135  0.65044255  0.48121103     0.17900
C2635       C  0.86998771  0.77326800  0.98677754    -0.27400
C2636       C  0.88762288  0.78693075  0.46479662     0.06300
C2637       C  0.88791363  0.76884129  0.44332129     0.25900
C2638       C  0.87334256  0.73997673  0.44706780    -0.11800
C2639       C  0.85739833  0.72833022  0.47176170    -0.25800
C2640       C  0.85530954  0.74442258  0.99142502     0.36700
C2641       C  0.90427118  0.81784446  0.46110741     0.06300
F2642       F  0.90185613  0.77893621  0.41835347    -0.19600
H2643       H  0.87429609  0.72657989  0.43047482     0.16100
F2644       F  0.83900285  0.73434798  0.01504206    -0.23300
H2645       H  0.86850084  0.78698972  0.00252481     0.17900
C2646       C  0.89279336  0.83447409  0.46723761     0.25900
C2647       C  0.90761136  0.86277529  0.46006944    -0.11800
C2648       C  0.93366186  0.87470173  0.44612323    -0.25800
C2649       C  0.94581321  0.85864789  0.44148314     0.36800
C2650       C  0.93148610  0.83069431  0.44944794    -0.27500
F2651       F  0.86660344  0.82310325  0.47840500    -0.19600
H2652       H  0.89796837  0.87492183  0.46392827     0.16100
F2653       F  0.97143705  0.86989770  0.42899300    -0.23300
H2654       H  0.94139855  0.81880617  0.44566583     0.17900
C2655       C  0.72665453  0.59370218  0.46078239    -0.27400
C2656       C  0.71061188  0.60393382  0.47269939     0.06300
C2657       C  0.72395808  0.62824071  0.49055010     0.25900
C2658       C  0.75312960  0.64286214  0.49490122    -0.11800
C2659       C  0.76957806  0.63368680  0.48137759    -0.25800
C2660       C  0.75577296  0.60844390  0.46467599     0.36700
C2661       C  0.68067451  0.59052624  0.46411128     0.06300
F2662       F  0.70912557  0.63880551  0.50239309    -0.19600
H2663       H  0.76295075  0.66182297  0.50829508     0.16100
F2664       F  0.77037992  0.59894586  0.45015342    -0.23300
H2665       H  0.71671435  0.57481472  0.44723649     0.17900
C2666       C  0.67321228  0.58557786  0.43490571     0.25900
C2667       C  0.64514483  0.57278702  0.42652663    -0.11800
C2668       C  0.62386090  0.56504817  0.44693534    -0.25800
C2669       C  0.63125804  0.57019065  0.47622846     0.36800
C2670       C  0.65947496  0.58276513  0.48467412    -0.27500
F2671       F  0.69319918  0.59387039  0.41433101    -0.19600
H2672       H  0.64016412  0.56946666  0.40384502     0.16100
F2673       F  0.61134563  0.56265809  0.49672989    -0.23300
H2674       H  0.66509772  0.58702648  0.00735852     0.17900
C2675       C  0.84657595  0.65624821  0.47603203     0.04000
C2676       C  0.81756276  0.63992742  0.48180842    -0.12200
C2677       C  0.80094222  0.65182877  0.48216504     0.01500
C2678       C  0.81437065  0.68111006  0.48001104    -0.10700
C2679       C  0.84351286  0.69786182  0.47584997     0.04000
C2680       C  0.85931650  0.68525390  0.47317825    -0.10100
H2681       H  0.80773645  0.61766184  0.48499573     0.09600
H2682       H  0.80209080  0.69081621  0.47976805     0.07100
H2683       H  0.88142872  0.69811250  0.46790921     0.07000
C2684       C  0.84147221  0.64970409  0.57011039     0.04000
C2685       C  0.85710879  0.67914571  0.56979674    -0.12200
C2686       C  0.84349358  0.69404019  0.56843003     0.01500
C2687       C  0.81395841  0.67893746  0.56623170    -0.10700
C2688       C  0.79796611  0.64948218  0.56713272     0.04000
C2689       C  0.81196834  0.63499738  0.56874212    -0.10100
H2690       H  0.87976980  0.69039900  0.57246520     0.09600
H2691       H  0.80332552  0.69023575  0.56452500     0.07100
H2692       H  0.79994592  0.61233102  0.56995221     0.07000
C2693       C  0.64217459  0.84798588  0.81781300     0.04000
C2694       C  0.67158399  0.86290344  0.82186130    -0.12200
C2695       C  0.68609791  0.84878975  0.82131323     0.01500
C2696       C  0.67094431  0.81945185  0.81770299    -0.10700
C2697       C  0.64159663  0.80423289  0.81411216     0.04000
C2698       C  0.62772868  0.81883555  0.81262524    -0.10100
H2699       H  0.68318147  0.88536466  0.82623421     0.09600
H2700       H  0.68186519  0.80844867  0.81959237     0.07100
H2701       H  0.60523560  0.80711346  0.80877309     0.07000
C2702       C  0.64585467  0.85462473  0.72376350     0.04000
C2703       C  0.67541422  0.86970181  0.72455134    -0.12200
C2704       C  0.68998556  0.85632329  0.72999367     0.01500
C2705       C  0.67448786  0.82719001  0.73390868    -0.10700
C2706       C  0.64497677  0.81133663  0.73149077     0.04000
C2707       C  0.63080376  0.82536912  0.72720785    -0.10100
H2708       H  0.68714846  0.89168616  0.71941316     0.09600
H2709       H  0.68545610  0.81657325  0.73801207     0.07100
H2710       H  0.60808372  0.81336366  0.72530597     0.07000
C2711       C  0.54522932  0.95312853  0.86178965     0.43300
N2712       N  0.51376911  0.96368626  0.86668452     0.02200
C2713       C  0.53117913  0.59282004  0.89637019    -0.05700
H2714       H  0.57045519  0.55989798  0.97241621     0.07700
C2715       C  0.97303493  0.97836802  0.99270164    -0.06000
Co2716     Co  0.53596576  0.52421572  0.86988617     0.74200
N2717       N  0.55095630  0.54231485  0.93127409    -0.25200
Co2718     Co  0.51286539  0.54056680  0.93205562     0.74100
C2719       C  0.99849601  0.00035993  0.51117663     0.43400
N2720       N  0.95280258  0.94159143  0.92591275     0.01800
N2721       N  0.99845037  0.51304793  0.96558981     0.01900
N2722       N  0.54632169  0.58197774  0.85571437    -0.46000
H2723       H  0.58112489  0.99980105  0.86560097     0.07700
N2724       N  0.55976282  0.53607031  0.90755283     0.02200
N2725       N  0.97455725  0.53850601  0.93240689     0.02000
C2726       C  0.94299729  0.54866819  0.93804032     0.43600
N2727       N  0.96174188  0.93542854  0.90219150    -0.24700
C2728       C  0.51750509  0.52396282  0.80725727    -0.05600
N2729       N  0.51717234  0.94228023  0.86216332    -0.45800
N2730       N  0.97103994  0.55982758  0.93683517    -0.46000
C2731       C  0.99395074  0.50434279  0.78880972     0.43300
N2732       N  0.53570770  0.56118438  0.87389515     0.02200
N2733       N  0.93771474  0.96074658  0.86935454    -0.24700
N2734       N  0.53792351  0.98801934  0.86877402    -0.25200
N2735       N  0.92956670  0.96783495  0.89305648     0.01800
H2736       H  0.91688445  0.94196244  0.82889057     0.07700
H2737       H  0.90712383  0.50209304  0.93441602     0.07800
N2738       N  0.52697111  0.56718111  0.89784134    -0.25200
N2739       N  0.97854615  0.99054042  0.96724927    -0.24800
N2740       N  0.99010634  0.98992847  0.83414984     0.02200
C2741       C  0.59425033  0.55090792  0.93721126     0.43600
C2742       C  0.95781172  0.90988953  0.90435066    -0.06100
N2743       N  0.95048085  0.51408272  0.93066333    -0.24800
H2744       H  0.95377813  0.95925241  0.99835858     0.07800
N2745       N  0.58557593  0.54118042  0.91007908    -0.46100
H2746       H  0.96186968  0.89865204  0.88772733     0.07700
C2747       C  0.89462178  0.95269431  0.86410303     0.43400
C2748       C  0.55903598  0.98353911  0.86601392    -0.05600
Co2749     Co  0.97566870  0.96206337  0.86769817     0.73800
N2750       N  0.94198831  0.92102404  0.94430484    -0.45800
C2751       C  0.54407513  0.60264038  0.86846903     0.43700
N2752       N  0.97863052  0.98490333  0.80832898    -0.45800
Co2753     Co  0.95355570  0.97889571  0.93052059     0.73900
C2754       C  0.92925245  0.51832390  0.93400498    -0.06100
C2755       C  0.57122439  0.55176720  0.95134084    -0.05600
N2756       N  0.51153062  0.51179924  0.83275470    -0.25200
N2757       N  0.51006730  0.51869608  0.99127145    -0.45900
H2758       H  0.52678108  0.60353845  0.91329692     0.07700
C2759       C  0.91692330  0.95076232  0.84985104    -0.06100
Cl2760     Cl  0.99272700  0.50041166  0.89837884    -0.49100
C2761       C  0.94490239  0.90055082  0.93235725     0.43500
H2762       H  0.53663851  0.54336782  0.80199021     0.07700
N2763       N  0.90384824  0.96311575  0.89090960    -0.45800
C2764       C  0.59236614  0.54971648  0.60782152     0.43300
N2765       N  0.55255977  0.54408662  0.61906795     0.02200
C2766       C  0.97466374  0.98354038  0.74322705    -0.05700
H2767       H  0.49585349  0.91820891  0.68209314     0.07700
C2768       C  0.94285877  0.92442398  0.60033347    -0.06000
Co2769     Co  0.53446208  0.52260102  0.67808574     0.74200
N2770       N  0.50957050  0.96194586  0.68127989    -0.25200
Co2771     Co  0.97268570  0.96242567  0.68068804     0.74100
C2772       C  0.94357166  0.90169411  0.61400578     0.43400
N2773       N  0.98318548  0.99664601  0.58498706     0.01800
N2774       N  0.95935917  0.93719162  0.64345612     0.01900
N2775       N  0.51520151  0.52069177  0.74050261    -0.46000
H2776       H  0.59582864  0.53313131  0.65103207     0.07700
N2777       N  0.53464394  0.98535790  0.68206196     0.02200
N2778       N  0.93635540  0.96391972  0.67898318     0.02000
C2779       C  0.89600903  0.95828481  0.68772462     0.43600
N2780       N  0.50183607  0.51889822  0.58199039    -0.24700
C2781       C  0.54731576  0.58157621  0.69953193    -0.05600
N2782       N  0.57184738  0.55338050  0.59868942    -0.45800
N2783       N  0.91628786  0.95499264  0.69853130    -0.46000
C2784       C  0.54515940  0.60400390  0.68741987     0.43300
N2785       N  0.50841953  0.50943798  0.71417374     0.02200
N2786       N  0.97883710  0.54457750  0.61822403    -0.24700
N2787       N  0.55945659  0.53520803  0.64140977    -0.25200
N2788       N  0.95405837  0.52086957  0.61704826     0.01800
H2789       H  0.99195172  0.58787753  0.61437046     0.07700
H2790       H  0.89428020  0.97387988  0.64319018     0.07800
N2791       N  0.98657171  0.98823767  0.71734168    -0.25200
N2792       N  0.95294039  0.94537240  0.62024179    -0.24800
N2793       N  0.52944706  0.56942347  0.65679917     0.02200
C2794       C  0.54316217  0.95248965  0.68331168     0.43600
C2795       C  0.51362331  0.52341662  0.55606011    -0.06100
N2796       N  0.93020111  0.97227654  0.65569826    -0.24800
H2797       H  0.93517799  0.92496957  0.57942597     0.07800
N2798       N  0.55537049  0.98065542  0.68341241    -0.46100
H2799       H  0.53325163  0.54193898  0.55003058     0.07700
C2800       C  0.94481209  0.55300452  0.61228408     0.43400
C2801       C  0.58427073  0.53773728  0.63621067    -0.05600
Co2802     Co  0.51588475  0.54472628  0.61886686     0.73800
N2803       N  0.97710283  0.98468918  0.55899918    -0.45800
C2804       C  0.99299124  0.50395407  0.75741192     0.43700
N2805       N  0.53413028  0.59503133  0.66078587    -0.45800
Co2806     Co  0.95610424  0.98409402  0.61989669     0.73900
C2807       C  0.90520970  0.96970634  0.65923842    -0.06100
C2808       C  0.51276933  0.94003070  0.68204782    -0.05600
N2809       N  0.53700601  0.56108379  0.67913731    -0.25200
N2810       N  0.95397198  0.91127883  0.64071143    -0.45900
H2811       H  0.95491288  0.96504025  0.74903949     0.07700
C2812       C  0.97519762  0.56607060  0.61554288    -0.06100
Cl2813     Cl  0.99259570  0.50262840  0.64746250    -0.49100
C2814       C  0.99945088  0.00132169  0.54246624     0.43500
H2815       H  0.55595890  0.58109593  0.71991346     0.07700
N2816       N  0.93313326  0.52495202  0.61329925    -0.45800
C2817       C  0.55963068  0.67762854  0.69990532    -0.27400
C2818       C  0.58395974  0.69014651  0.71706088     0.06300
C2819       C  0.59433655  0.67370896  0.72605420     0.25900
C2820       C  0.58090999  0.64534933  0.71737215    -0.11800
C2821       C  0.55735898  0.63311959  0.69898876    -0.25800
C2822       C  0.54656707  0.64944270  0.69066871     0.36700
C2823       C  0.60003337  0.72089697  0.72277079     0.06300
F2824       F  0.61783024  0.68529965  0.74268884    -0.19600
H2825       H  0.58969365  0.63330492  0.72406481     0.16100
F2826       F  0.52357041  0.63824515  0.67336212    -0.23300
H2827       H  0.55145376  0.69005325  0.69266569     0.17900
C2828       C  0.62629198  0.73779445  0.70979474     0.25900
C2829       C  0.64080967  0.76697333  0.71328308    -0.11800
C2830       C  0.62956696  0.78005724  0.72986336    -0.25800
C2831       C  0.60330398  0.76302248  0.74318074     0.36800
C2832       C  0.58868171  0.73367995  0.73955271    -0.27500
F2833       F  0.63733271  0.72607427  0.69266001    -0.19600
H2834       H  0.66058266  0.77943214  0.70216515     0.16100
F2835       F  0.59191205  0.77461667  0.75992934    -0.23300
H2836       H  0.56843774  0.72089703  0.74974860     0.17900
C2837       C  0.76717715  0.91514913  0.73731539    -0.27400
C2838       C  0.78047759  0.90287764  0.72331806     0.06300
C2839       C  0.76425825  0.87503777  0.71281001     0.25900
C2840       C  0.73499282  0.86001104  0.71535162    -0.11800
C2841       C  0.72133396  0.87227485  0.72890796    -0.25800
C2842       C  0.73788326  0.89994571  0.74042405     0.36700
C2843       C  0.81092189  0.91968677  0.71740818     0.06300
F2844       F  0.77666550  0.86284523  0.69886198    -0.19600
H2845       H  0.72298045  0.83900496  0.70589445     0.16100
F2846       F  0.72586586  0.91228323  0.75483790    -0.23300
H2847       H  0.77951269  0.93659845  0.74561666     0.17900
C2848       C  0.82132141  0.94066069  0.69704855     0.25900
C2849       C  0.84935952  0.95393414  0.68836128    -0.11800
C2850       C  0.86753038  0.94660393  0.69991589    -0.25800
C2851       C  0.85741818  0.92662160  0.72151754     0.36800
C2852       C  0.82921283  0.91310609  0.72995001    -0.27500
F2853       F  0.80392947  0.94717559  0.68441346    -0.19600
H2854       H  0.85660257  0.96945674  0.67201851     0.16100
F2855       F  0.87427872  0.91908601  0.73348968    -0.23300
H2856       H  0.82140799  0.89695477  0.74570609     0.17900
C2857       C  0.62562089  0.90939929  0.72230402    -0.27400
C2858       C  0.60226096  0.89626932  0.70380913     0.06300
C2859       C  0.59350337  0.86966304  0.69163001     0.25900
C2860       C  0.60768626  0.85628914  0.69824989    -0.11800
C2861       C  0.63087265  0.86913658  0.71715347    -0.25800
C2862       C  0.63982290  0.89605324  0.72898785     0.36700
C2863       C  0.58695650  0.91031730  0.69764585     0.06300
F2864       F  0.57160594  0.85687725  0.67282272    -0.19600
H2865       H  0.60078810  0.83603547  0.68810202     0.16100
F2866       F  0.66199562  0.90938348  0.74737731    -0.23300
H2867       H  0.63260513  0.92988856  0.73195574     0.17900
C2868       C  0.55794101  0.89685285  0.70287506     0.25900
C2869       C  0.54375022  0.91050129  0.69765911    -0.11800
C2870       C  0.55825931  0.93789390  0.68739715    -0.25800
C2871       C  0.58728488  0.95130833  0.68196862     0.36800
C2872       C  0.60147653  0.93759739  0.68715055    -0.27500
F2873       F  0.54352175  0.87088809  0.71401122    -0.19600
H2874       H  0.52150862  0.89980716  0.70239306     0.16100
F2875       F  0.60189052  0.97751178  0.67139812    -0.23300
H2876       H  0.62382731  0.94822422  0.68287812     0.17900
C2877       C  0.58198937  0.68177088  0.86774871    -0.27400
C2878       C  0.58306251  0.68653496  0.83833887     0.06300
C2879       C  0.57187123  0.66354286  0.81873417     0.25900
C2880       C  0.55939414  0.63620038  0.82862886    -0.11800
C2881       C  0.55765575  0.63148464  0.85814068    -0.25800
C2882       C  0.56936326  0.65460488  0.87764207     0.36700
C2883       C  0.59584984  0.71567673  0.82884958     0.06300
F2884       F  0.57221779  0.66744762  0.79019498    -0.19600
H2885       H  0.55059987  0.61868108  0.81329861     0.16100
F2886       F  0.56953424  0.65120521  0.90624822    -0.23300
H2887       H  0.59114111  0.69924910  0.88315615     0.17900
C2888       C  0.58735011  0.73301785  0.84143927     0.25900
C2889       C  0.60170684  0.76143897  0.83552129    -0.11800
C2890       C  0.62485952  0.77329548  0.81691520    -0.25800
C2891       C  0.63268907  0.75572232  0.80333202     0.36800
C2892       C  0.61812788  0.72706328  0.80917521    -0.27500
F2893       F  0.56553372  0.72258174  0.86009777    -0.19600
H2894       H  0.59537954  0.77445663  0.84655623     0.16100
F2895       F  0.65450297  0.76625832  0.78470167    -0.23300
H2896       H  0.62497578  0.71401549  0.79925400     0.17900
C2897       C  0.76401164  0.87747712  0.81218119    -0.27400
C2898       C  0.77540503  0.89329465  0.83785463     0.06300
C2899       C  0.75694939  0.89412505  0.85812180     0.25900
C2900       C  0.72805135  0.88016230  0.85233307    -0.11800
C2901       C  0.71683103  0.86432027  0.82676320    -0.25800
C2902       C  0.73498856  0.86264771  0.80696883     0.36700
C2903       C  0.80637254  0.90888792  0.84332643     0.06300
F2904       F  0.76666253  0.90768774  0.88391836    -0.19600
H2905       H  0.71426403  0.88108995  0.86818309     0.16100
F2906       F  0.72463821  0.84678351  0.78249297    -0.23300
H2907       H  0.77758643  0.87667973  0.79599454     0.17900
C2908       C  0.82216593  0.89648523  0.83712846     0.25900
C2909       C  0.85115336  0.91135980  0.84272537    -0.11800
C2910       C  0.86479673  0.93847264  0.85533564    -0.25800
C2911       C  0.84922949  0.95097270  0.86139368     0.36800
C2912       C  0.82042669  0.93647835  0.85502679    -0.27500
F2913       F  0.80945128  0.86955043  0.82691530    -0.19600
H2914       H  0.86272264  0.90117472  0.83835449     0.16100
F2915       F  0.86195293  0.97732029  0.87325429    -0.23300
H2916       H  0.80907120  0.94687651  0.85934562     0.17900
C2917       C  0.58617844  0.86371461  0.84010970    -0.27400
C2918       C  0.59768469  0.89096134  0.83033679     0.06300
C2919       C  0.62330978  0.90363821  0.81540121     0.25900
C2920       C  0.63740040  0.88944274  0.81099017    -0.11800
C2921       C  0.62622752  0.86231332  0.82122986    -0.25800
C2922       C  0.60026512  0.84955306  0.83586350     0.37900
C2923       C  0.58403463  0.90678330  0.83789809     0.06300
F2924       F  0.63478412  0.92982815  0.80521940    -0.19600
H2925       H  0.65727026  0.89982387  0.79982247     0.16100
F2926       F  0.58918899  0.82410062  0.84771769    -0.23300
H2927       H  0.56678366  0.85381531  0.85220554     0.17900
C2928       C  0.55530834  0.89546019  0.83224619     0.25900
C2929       C  0.54273337  0.91047703  0.84044595    -0.11800
C2930       C  0.55853641  0.93697638  0.85441027    -0.25800
C2931       C  0.58711660  0.94793676  0.86059825     0.36800
C2932       C  0.59966071  0.93299285  0.85229258    -0.27500
F2933       F  0.53956707  0.87016536  0.81832682    -0.19600
H2934       H  0.52068947  0.90153307  0.83546333     0.16100
F2935       F  0.60287574  0.97269511  0.87538188    -0.23300
H2936       H  0.62158697  0.94169143  0.85762241     0.17900
C2937       C  0.86463861  0.60462106  0.60306270    -0.27400
C2938       C  0.88528994  0.60736084  0.58368435     0.06300
C2939       C  0.89087416  0.62357680  0.55932866     0.25900
C2940       C  0.87652331  0.63732211  0.55502811    -0.11800
C2941       C  0.85596356  0.63452571  0.57445167    -0.25800
C2942       C  0.85000610  0.61794872  0.59846265     0.36700
C2943       C  0.90075363  0.59328218  0.58945437     0.06300
F2944       F  0.90971036  0.62570590  0.53940970    -0.19600
H2945       H  0.88114297  0.64985179  0.53675630     0.16100
F2946       F  0.83073043  0.61544225  0.61799693    -0.23300
H2947       H  0.86016036  0.59250979  0.62204624     0.17900
C2948       C  0.93034890  0.60809434  0.58892894     0.25900
C2949       C  0.94450871  0.59488243  0.59635017    -0.11800
C2950       C  0.92952822  0.56671803  0.60446656    -0.25800
C2951       C  0.89992521  0.55184391  0.60467991     0.36800
C2952       C  0.88578065  0.56505907  0.59726978    -0.27500
F2953       F  0.94567629  0.63562996  0.58234883    -0.19600
H2954       H  0.96727012  0.60688649  0.59581301     0.16100
F2955       F  0.88456776  0.52468355  0.61254479    -0.23300
H2956       H  0.86298907  0.55322873  0.59780088     0.17900
C2957       C  0.90036910  0.83170093  0.57273435    -0.27400
C2958       C  0.90582124  0.81447218  0.58874826     0.06300
C2959       C  0.92468408  0.82620331  0.61192884     0.25900
C2960       C  0.93739388  0.85473492  0.61938395    -0.11800
C2961       C  0.93153344  0.87209666  0.60387170    -0.25800
C2962       C  0.91310416  0.86029512  0.58009682     0.36700
C2963       C  0.88994623  0.78387730  0.58279051     0.06300
F2964       F  0.93015487  0.80985879  0.62783063    -0.19600
H2965       H  0.95149832  0.86315528  0.63770765     0.16100
F2966       F  0.90631198  0.87583931  0.56461589    -0.23300
H2967       H  0.88562312  0.82278829  0.55494497     0.17900
C2968       C  0.86402690  0.76666233  0.59619618     0.25900
C2969       C  0.84907039  0.73763119  0.59116312    -0.11800
C2970       C  0.85960793  0.72515376  0.57257644    -0.25800
C2971       C  0.88562826  0.74257062  0.55898893     0.36800
C2972       C  0.90062023  0.77173307  0.56410473    -0.27500
F2973       F  0.85335064  0.77797552  0.61443227    -0.19600
H2974       H  0.82939163  0.72480812  0.60230916     0.16100
F2975       F  0.89620046  0.73154658  0.54024763    -0.23300
H2976       H  0.92054690  0.78487120  0.55348845     0.17900
C2977       C  0.66056510  0.59933816  0.57009861    -0.27400
C2978       C  0.67664518  0.58776405  0.57647308     0.06300
C2979       C  0.66385392  0.56206388  0.59030167     0.25900
C2980       C  0.63594714  0.54917460  0.59938193    -0.11800
C2981       C  0.62021040  0.56139022  0.59430182    -0.25800
C2982       C  0.63236696  0.58604581  0.57850019     0.36700
C2983       C  0.70742646  0.60414326  0.57215995     0.06300
F2984       F  0.67892818  0.55042629  0.59674887    -0.19600
H2985       H  0.62687102  0.53002170  0.61118511     0.16100
F2986       F  0.61772156  0.59834803  0.57291215    -0.23300
H2987       H  0.67017827  0.61916832  0.55941332     0.17900
C2988       C  0.72061312  0.59408869  0.55413139     0.25900
C2989       C  0.75003763  0.60897677  0.55232100    -0.11800
C2990       C  0.76671808  0.63406306  0.56851896    -0.25800
C2991       C  0.75330150  0.64383648  0.58679002     0.36800
C2992       C  0.72396998  0.62914371  0.58826397    -0.27500
F2993       F  0.70501727  0.56996446  0.53827441    -0.19600
H2994       H  0.75980312  0.60102357  0.53809039     0.16100
F2995       F  0.76849892  0.66678854  0.60437062    -0.23300
H2996       H  0.71410726  0.63674935  0.60283988     0.17900
C2997       C  0.89323655  0.56886295  0.96879827    -0.27400
C2998       C  0.90476158  0.59585256  0.95818305     0.06300
C2999       C  0.92923806  0.60744702  0.94148074     0.25900
C3000       C  0.94177246  0.59203513  0.93530565    -0.11800
C3001       C  0.92983028  0.56477002  0.94531904    -0.25800
C3002       C  0.90556936  0.55334233  0.96239676     0.36700
C3003       C  0.89036256  0.61116294  0.96365787     0.06300
F3004       F  0.94035132  0.63317577  0.93025905    -0.19600
H3005       H  0.96044375  0.60112672  0.92209554     0.16100
F3006       F  0.89417915  0.52754164  0.97352964    -0.23300
H3007       H  0.87456220  0.55978967  0.98201619     0.17900
C3008       C  0.86218402  0.59896347  0.95534931     0.25900
C3009       C  0.84829941  0.61307778  0.96084964    -0.11800
C3010       C  0.86208649  0.63965925  0.97492375    -0.25800
C3011       C  0.89073340  0.65220648  0.98254636     0.36800
C3012       C  0.90458833  0.63791677  0.97706578    -0.27500
F3013       F  0.84829216  0.57365495  0.94115142    -0.19600
H3014       H  0.82678248  0.60330607  0.95341922     0.16100
F3015       F  0.90534032  0.67795432  0.99577844    -0.23300
H3016       H  0.92639789  0.64762036  0.98355243     0.17900
C3017       C  0.87120029  0.77513022  0.48939454    -0.27400
C3018       C  0.88673085  0.78430873  0.96226022     0.06300
C3019       C  0.88841510  0.76582203  0.94241671     0.25900
C3020       C  0.87447000  0.73719973  0.94755974    -0.11800
C3021       C  0.85796210  0.72626581  0.97211209    -0.25800
C3022       C  0.85572849  0.74599984  0.49258390     0.36700
C3023       C  0.90234488  0.81492292  0.95722426     0.06300
F3024       F  0.90301506  0.77527933  0.91767145    -0.19600
H3025       H  0.87621957  0.72342003  0.93208809     0.16100
F3026       F  0.83975701  0.73514966  0.51629299    -0.23300
H3027       H  0.87064852  0.78841476  0.50635973     0.17900
C3028       C  0.88930323  0.83041937  0.96072732     0.25900
C3029       C  0.90380904  0.85876665  0.95386138    -0.11800
C3030       C  0.93116378  0.87185321  0.94278114    -0.25800
C3031       C  0.94451319  0.85675301  0.94008441     0.36800
C3032       C  0.93036419  0.82868074  0.94767988    -0.27500
F3033       F  0.86210188  0.81788652  0.96925821    -0.19600
H3034       H  0.89316809  0.87013198  0.95588764     0.16100
F3035       F  0.97126323  0.86918154  0.93016686    -0.23300
H3036       H  0.94120599  0.81752723  0.94565013     0.17900
C3037       C  0.72713476  0.59244456  0.96169728    -0.27400
C3038       C  0.71077938  0.60259777  0.97301515     0.06300
C3039       C  0.72389063  0.62704789  0.99074935     0.25900
C3040       C  0.75300017  0.64175125  0.99562439    -0.11800
C3041       C  0.76966474  0.63246424  0.98292980    -0.25800
C3042       C  0.75620189  0.60723477  0.96622882     0.36700
C3043       C  0.68069242  0.58873708  0.96437144     0.06300
F3044       F  0.70890369  0.63764350  0.00208960    -0.19600
H3045       H  0.76261907  0.66080605  0.00887824     0.16100
F3046       F  0.77118063  0.59774884  0.95245121    -0.23300
H3047       H  0.71748524  0.57343657  0.94834496     0.17900
C3048       C  0.67286223  0.58208263  0.93529971     0.25900
C3049       C  0.64473205  0.56936721  0.92700554    -0.11800
C3050       C  0.62369234  0.56336058  0.94728410    -0.25800
C3051       C  0.63143749  0.56999191  0.97642524     0.36800
C3052       C  0.65967134  0.58244569  0.98481277    -0.27500
F3053       F  0.69254075  0.58874865  0.91466800    -0.19600
H3054       H  0.63953168  0.56478852  0.90441466     0.16100
F3055       F  0.61186398  0.56416097  0.99691009    -0.23300
H3056       H  0.66476100  0.58619592  0.50727668     0.17900
loop_ 
_geom_bond_atom_site_label_1 
_geom_bond_atom_site_label_2 
_geom_bond_distance 
_geom_bond_site_symmetry_2 
_ccdc_geom_bond_type 
C1            C2   1.410       .  A
C1            C6   1.404       .  A
C1          C718   1.492       .  S
C2            C3   1.406       .  A
C2            H7   1.082       .  S
C3            C4   1.405       .  A
C3          C749   1.491       .  S
C4            C5   1.400       .  A
C4            H8   1.083       .  S
C5            C6   1.401       .  A
C5          C729   1.476       .  S
C6            H9   1.082       .  S
C10          C11   1.405       .  A
C10          C15   1.406       .  A
C10         C267   1.481       .  S
C11          C12   1.404       .  A
C11          H16   1.083       .  S
C12          C13   1.404       .  A
C12         C296   1.489       .  S
C13          C14   1.402       .  A
C13          H17   1.083       .  S
C14          C15   1.403       .  A
C14         C316   1.482       .  S
C15          H18   1.083       .  S
C19          C20   1.407       .  A
C19          C24   1.404       .  A
C19         C247   1.493       .  S
C20          C21   1.406       .  A
C20          H25   1.083       .  S
C21          C22   1.403       .  A
C21         C227   1.484       .  S
C22          C23   1.405       .  A
C22          H26   1.083       .  S
C23          C24   1.405       .  A
C23         C216   1.489       .  S
C24          H27   1.082       .  S
C28          C29   1.411       .  A
C28          C33   1.412       .  A
C28         C187   1.497       .  S
C29          C30   1.405       .  A
C29          H34   1.082       .  S
C30          C31   1.400       .  A
C30         C167   1.484       .  S
C31          C32   1.401       .  A
C31          H35   1.084       .  S
C32          C33   1.405       .  A
C32         C156   1.488       .  S
C33          H36   1.082       .  S
C37          C74   1.464       .  S
C37         C256   1.486       .  S
C37          N55   1.353       .  A
N38          N55   1.326       .  A
N38          N60   1.319       .  A
N38       Co1603   2.090   1_455  S
C39          C77   1.459       .  S
C39          H84   1.080       .  S
C39          N64   1.335       .  A
H40          C81   1.081       .  S
C41         C427   1.459       .  S
C41          H70   1.082       .  S
C41          N65   1.341       .  A
Co42         N50   2.084       .  S
Co42         N82   2.083       .  S
Co42         N58   2.091       .  S
Co42        N824   2.083   1_545  S
Co42      Cl1614   2.451   1_455  S
N43          C81   1.341       .  A
N43          N50   1.318       .  A
N43         Co44   2.078       .  S
Co44         N64   2.071       .  S
Co44       N1575   2.080       .  S
Co44       N1579   2.075   1_455  S
Co44      Cl1614   2.444   1_455  S
C45         C140   1.460       .  S
C45         C423   1.461   1_554  S
C45        N2757   1.345   1_554  A
N46          N53   1.320       .  A
N46          N76   1.324       .  A
N46         Co79   2.081       .  S
N47         N829   1.320   1_545  A
N47        N1611   1.323       .  A
N47       Co1572   2.080       .  S
N48          C77   1.354       .  A
N48          N58   1.327       .  A
H49          C74   1.080       .  S
N50          N71   1.323       .  A
N51          N69   1.319       .  A
N51          N56   1.323       .  A
N51       Co1572   2.075       .  S
C52          C80   1.459       .  S
C52         C327   1.467       .  S
C52          N56   1.347       .  A
N53          C68   1.338       .  A
N53         Co75   2.079       .  S
C54        C1585   1.458   1_455  S
C54          H88   1.082       .  S
C54          N82   1.341       .  A
C57         C130   1.466       .  S
C57        C1582   1.458       .  S
C57         N842   1.350   1_545  A
N58          N64   1.318       .  A
N59          C85   1.342       .  A
N59          N61   1.320       .  A
N59         Co75   2.090       .  S
N60          C74   1.339       .  A
N60        Co806   2.081       .  S
N61          N89   1.324       .  A
N61         Co79   2.082       .  S
H62          C85   1.081       .  S
H63          C80   1.081       .  S
N65         N811   1.319       .  A
N65         Co79   2.081       .  S
N66          N78   1.323       .  A
N66        N2374   1.321       .  A
N66         Co75   2.085       .  S
C67          C81   1.463       .  S
C67         C376   1.480       .  S
C67          N71   1.351       .  A
C68          C87   1.458       .  S
C68          H72   1.081       .  S
N69          C80   1.338       .  A
N69        Co843   2.076   1_545  S
C73          C85   1.461       .  S
C73         C236   1.472       .  S
C73          N89   1.349       .  A
Co75       N1566   2.091       .  S
Co75       Cl850   2.447       .  S
N76          C87   1.349       .  A
C77         C207   1.480       .  S
N78         C821   1.349       .  A
Co79        N833   2.076       .  S
Co79       Cl850   2.452       .  S
N82        N2358   1.321   1_445  A
N83        C2719   1.348   1_455  A
N83        N1575   1.323       .  A
Cl86      Co1570   2.451       .  S
Cl86      Co1572   2.444       .  S
Cl86       Co839   2.449   1_545  S
Cl86       Co843   2.451   1_545  S
C87         C356   1.469       .  S
C90         C127   1.463       .  S
C90         C307   1.478       .  S
C90         N108   1.349       .  A
N91         N108   1.324       .  A
N91         N113   1.319       .  A
N91        Co128   2.076       .  S
C92         C894   1.454       .  S
C92         H137   1.081       .  S
C92         N117   1.337       .  A
H93         C134   1.081   1_655  S
C94          C98   1.468       .  S
C94         H123   1.080       .  S
C94         N118   1.343       .  A
Co95        N113   2.088       .  S
Co95        N135   2.089       .  S
Co95        N111   2.092       .  S
Co95        N867   2.087   1_545  S
Co95      Cl1667   2.451   1_455  S
N96         C134   1.339       .  A
N96         N103   1.320       .  A
N96       Co1625   2.081   1_455  S
Co97        N100   2.081       .  S
Co97        N117   2.074       .  S
Co97        N104   2.092       .  S
Co97       N1624   2.081       .  S
Co97       Cl903   2.451       .  S
C98         C287   1.487       .  S
C98         N136   1.351       .  A
N99         N129   1.324       .  A
N99        N2398   1.321       .  A
N99        Co132   2.075       .  S
N100        N118   1.317       .  A
N100        N136   1.323       .  A
N101       C1658   1.351   1_455  A
N101        N111   1.326       .  A
H102        C127   1.081       .  S
N103        N124   1.325       .  A
N103       Co859   2.089       .  S
N104        N122   1.318       .  A
N104        N109   1.328       .  A
C105        C133   1.463       .  S
C105        C176   1.486       .  S
C105        N109   1.354       .  A
N106        C121   1.339       .  A
N106       N2391   1.320   1_445  A
N106       Co128   2.083       .  S
C107        C110   1.463       .  S
C107        H141   1.082       .  S
C107        N135   1.343       .  A
C110        C147   1.477       .  S
C110        N131   1.350       .  A
N111       N2409   1.320   1_445  A
N112        C138   1.339       .  A
N112        N114   1.318       .  A
N112      Co1656   2.074       .  S
N113        C127   1.341       .  A
N114        N142   1.323       .  A
N114       Co896   2.083   1_545  S
H115        C138   1.081       .  S
H116        C133   1.081       .  S
N117       N2403   1.320       .  A
N118       Co132   2.088       .  S
N119        N131   1.323       .  A
N119        N135   1.320       .  A
N119       Co128   2.085       .  S
C120        C134   1.460       .  S
C120        C196   1.480       .  S
C120        N124   1.352       .  A
C121       C2432   1.458   1_445  S
C121        H125   1.082       .  S
N122        C133   1.336       .  A
N122       Co132   2.079       .  S
C126        C138   1.461       .  S
C126        C276   1.480       .  S
C126        N142   1.351       .  A
Co128      N1640   2.074   1_455  S
Co128     Cl1667   2.446   1_455  S
N129        C140   1.347       .  A
C130        C856   1.456   1_545  S
C130       N1629   1.351       .  A
Co132       N878   2.083       .  S
Co132      Cl903   2.449       .  S
Cl139     Co1623   2.451       .  S
Cl139      Co861   2.448   1_545  S
Cl139     Co1656   2.446       .  S
Cl139      Co896   2.450   1_545  S
C140       C2413   1.458       .  S
C143        C144   1.401       .  A
C143        C148   1.398       .  A
C143        H153   1.083       .  S
C144        C145   1.405       .  A
C144        C149   1.475       .  S
C145        C146   1.400       .  A
C145        F150   1.358       .  S
C146        C147   1.405       .  A
C146        H151   1.083       .  S
C147        C148   1.407       .  A
C148        F152   1.358       .  S
C149        C154   1.402       .  A
C149        C158   1.403       .  A
C154        C155   1.394       .  A
C154        F159   1.358       .  S
C155        C156   1.407       .  A
C155        H160   1.084       .  S
C156        C157   1.409       .  A
C157        C158   1.402       .  A
C157        F161   1.356       .  S
C158        H162   1.083       .  S
C163        C164   1.403       .  A
C163        C168   1.403       .  A
C163        H173   1.083       .  S
C164        C165   1.402       .  A
C164        C169   1.475       .  S
C165        C166   1.394       .  A
C165        F170   1.358       .  S
C166        C167   1.405       .  A
C166        H171   1.083       .  S
C167        C168   1.409       .  A
C168        F172   1.357       .  S
C169        C174   1.401       .  A
C169        C178   1.403       .  A
C174        C175   1.392       .  A
C174        F179   1.358       .  S
C175        C176   1.406       .  A
C175        H180   1.080       .  S
C176        C177   1.412       .  A
C177        C178   1.406       .  A
C177        F181   1.357       .  S
C178        H182   1.084       .  S
C183        C184   1.403       .  A
C183        C188   1.399       .  A
C183        H193   1.083       .  S
C184        C185   1.405       .  A
C184        C189   1.484       .  S
C185        C186   1.398       .  A
C185        F190   1.358       .  S
C186        C187   1.410       .  A
C186        H191   1.082       .  S
C187        C188   1.412       .  A
C188        F192   1.355       .  S
C189        C194   1.406       .  A
C189        C198   1.405       .  A
C194        C195   1.398       .  A
C194        F199   1.358       .  S
C195        C196   1.406       .  A
C195        H200   1.082       .  S
C196        C197   1.407       .  A
C197        C198   1.399       .  A
C197        F201   1.357       .  S
C198        H202   1.083       .  S
C203        C204   1.403       .  A
C203        C208   1.393       .  A
C203        H213   1.083       .  S
C204        C205   1.406       .  A
C204        C209   1.483       .  S
C205        C206   1.402       .  A
C205        F210   1.356       .  S
C206        C207   1.405       .  A
C206        H211   1.082       .  S
C207        C208   1.409       .  A
C208        F212   1.356       .  S
C209        C214   1.405       .  A
C209        C218   1.405       .  A
C214        C215   1.393       .  A
C214        F219   1.358       .  S
C215        C216   1.407       .  A
C215        H220   1.083       .  S
C216        C217   1.410       .  A
C217        C218   1.401       .  A
C217        F221   1.357       .  S
C218        H222   1.083       .  S
C223        C224   1.407       .  A
C223        C228   1.399       .  A
C223        H233   1.082       .  S
C224        C225   1.411       .  A
C224        C229   1.492       .  S
C225        C226   1.398       .  A
C225        F230   1.357       .  S
C226        C227   1.403       .  A
C226        H231   1.083       .  S
C227        C228   1.406       .  A
C228        F232   1.356       .  S
C229        C234   1.411       .  A
C229        C238   1.408       .  A
C234        C235   1.399       .  A
C234        F239   1.357       .  S
C235        C236   1.401       .  A
C235        H240   1.084       .  S
C236        C237   1.402       .  A
C237        C238   1.399       .  A
C237        F241   1.358       .  S
C238        H242   1.083       .  S
C243        C244   1.402       .  A
C243        C248   1.398       .  A
C243        H253   1.083       .  S
C244        C245   1.408       .  A
C244        C249   1.487       .  S
C245        C246   1.400       .  A
C245        F250   1.358       .  S
C246        C247   1.404       .  A
C246        H251   1.079       .  S
C247        C248   1.412       .  A
C248        F252   1.357       .  S
C249        C254   1.408       .  A
C249        C258   1.403       .  A
C254        C255   1.401       .  A
C254        F259   1.358       .  S
C255        C256   1.407       .  A
C255        H260   1.083       .  S
C256        C257   1.409       .  A
C257        C258   1.398       .  A
C257        F261   1.355       .  S
C258        H262   1.083       .  S
C263        C264   1.405       .  A
C263        C268   1.398       .  A
C263        H273   1.082       .  S
C264        C265   1.405       .  A
C264        C269   1.480       .  S
C265        C266   1.397       .  A
C265        F270   1.358       .  S
C266        C267   1.403       .  A
C266        H271   1.072       .  S
C267        C268   1.406       .  A
C268        F272   1.357       .  S
C269        C274   1.406       .  A
C269        C278   1.402       .  A
C274        C275   1.398       .  A
C274        F279   1.358       .  S
C275        C276   1.406       .  A
C275        H280   1.082       .  S
C276        C277   1.408       .  A
C277        C278   1.395       .  A
C277        F281   1.357       .  S
C278        H282   1.083       .  S
C283        C284   1.400       .  A
C283        C288   1.401       .  A
C283        H293   1.083       .  S
C284        C285   1.401       .  A
C284        C289   1.473       .  S
C285        C286   1.397       .  A
C285        F290   1.358       .  S
C286        C287   1.408       .  A
C286        H291   1.083       .  S
C287        C288   1.412       .  A
C288        F292   1.355       .  S
C289        C294   1.400       .  A
C289        C298   1.402       .  A
C294        C295   1.393       .  A
C294        F299   1.358       .  S
C295        C296   1.408       .  A
C295        H300   1.083       .  S
C296        C297   1.411       .  A
C297        C298   1.402       .  A
C297        F301   1.357       .  S
C298        H302   1.083       .  S
C303        C304   1.402       .  A
C303        C308   1.400       .  A
C303        H313   1.084       .  S
C304        C305   1.403       .  A
C304        C309   1.473       .  S
C305        C306   1.397       .  A
C305        F310   1.357       .  S
C306        C307   1.403       .  A
C306        H311   1.083       .  S
C307        C308   1.410       .  A
C308        F312   1.358       .  S
C309        C314   1.404       .  A
C309        C318   1.400       .  A
C314        C315   1.401       .  A
C314        F319   1.357       .  S
C315        C316   1.405       .  A
C315        H320   1.083       .  S
C316        C317   1.409       .  A
C317        C318   1.395       .  A
C317        F321   1.358       .  S
C318        H322   1.084       .  S
C323        C324   1.402       .  A
C323        C328   1.393       .  A
C323        H333   1.083       .  S
C324        C325   1.406       .  A
C324        C329   1.474       .  S
C325        C326   1.398       .  A
C325        F330   1.358       .  S
C326        C327   1.403       .  A
C326        H331   1.084       .  S
C327        C328   1.404       .  A
C328        F332   1.357       .  S
C329        C334   1.402       .  A
C329        C338   1.401       .  A
C334        C335   1.392       .  A
C334        F339   1.358       .  S
C335        C336   1.408       .  A
C335        H340   1.082       .  S
C336        C337   1.413       .  A
C336        C383   1.490       .  S
C337        C338   1.398       .  A
C337        F341   1.357       .  S
C338        H342   1.083       .  S
C343        C348   1.398       .  A
C343        C726   1.406       .  A
C343        H353   1.082   1_556  S
C344        C345   1.410       .  A
C344        C725   1.406       .  A
C344        C349   1.485       .  S
C345        C346   1.395       .  A
C345        F350   1.358       .  S
C346        C347   1.401       .  A
C346        H351   1.083       .  S
C347        C730   1.403       .  A
C347        C387   1.474       .  S
C348        C729   1.405       .  A
C348        F352   1.356   1_556  S
C349        C354   1.410       .  A
C349        C358   1.406       .  A
C354        C355   1.398       .  A
C354        F359   1.357       .  S
C355        C356   1.402       .  A
C355        H360   1.083       .  S
C356        C357   1.402       .  A
C357        C358   1.395       .  A
C357        F361   1.357       .  S
C358        H362   1.082       .  S
C363        C364   1.403       .  A
C363        C368   1.395       .  A
C363        H373   1.083       .  S
C364        C365   1.407       .  A
C364        C369   1.483       .  S
C365        C366   1.399       .  A
C365        F370   1.357       .  S
C366        C367   1.406       .  A
C366        H371   1.082       .  S
C367        C368   1.411       .  A
C367        C385   1.486       .  S
C368        F372   1.358       .  S
C369        C374   1.407       .  A
C369        C378   1.404       .  A
C374        C375   1.394       .  A
C374        F379   1.358       .  S
C375        C376   1.404       .  A
C375        H380   1.083       .  S
C376        C377   1.409       .  A
C377        C378   1.401       .  A
C377        F381   1.356       .  S
C378        H764   1.082       .  S
H382        C760   1.084   1_554  S
C383        C384   1.408       .  A
C383        C388   1.404       .  A
C384        C385   1.404       .  A
C384        H389   1.082       .  S
C385        C386   1.404       .  A
C386        C387   1.400       .  A
C386        H390   1.083       .  S
C387        C388   1.400       .  A
C388        H391   1.082       .  S
C392        C393   1.404       .  A
C392        C397   1.404       .  A
C392        C649   1.478       .  S
C393        C394   1.405       .  A
C393        H398   1.083       .  S
C394        C395   1.406       .  A
C394        C678   1.493       .  S
C395        C396   1.404       .  A
C395        H399   1.083       .  S
C396        C397   1.404       .  A
C396        C698   1.486       .  S
C397        H400   1.084       .  S
C401        C402   1.407       .  A
C401        C406   1.401       .  A
C401        C629   1.489       .  S
C402        C403   1.407       .  A
C402        H407   1.083       .  S
C403        C404   1.404       .  A
C403        C609   1.484       .  S
C404        C405   1.405       .  A
C404        H408   1.083       .  S
C405        C406   1.404       .  A
C405        C598   1.486       .  S
C406        H409   1.083       .  S
C410        C411   1.406       .  A
C410        C415   1.411       .  A
C410        C569   1.493       .  S
C411        C412   1.401       .  A
C411        H416   1.082       .  S
C412        C413   1.402       .  A
C412        C549   1.484       .  S
C413        C414   1.404       .  A
C413        H417   1.083       .  S
C414        C415   1.407       .  A
C414        C538   1.493       .  S
C415        H418   1.082       .  S
C419        C456   1.465       .  S
C419        C638   1.488       .  S
C419        N437   1.353       .  A
N420        N437   1.326       .  A
N420        N442   1.319       .  A
N420      Co1985   2.091   1_455  S
C421        C459   1.459       .  S
C421        H466   1.081       .  S
C421        N446   1.335       .  A
H422        C463   1.081       .  S
C423        H452   1.082       .  S
C423        N447   1.342       .  A
Co424      N1206   2.080   1_545  S
Co424       N432   2.089       .  S
Co424       N464   2.080       .  S
Co424       N440   2.084       .  S
Co424     Cl1996   2.453   1_455  S
N425        C463   1.340       .  A
N425        N432   1.318       .  A
N425       Co426   2.078       .  S
Co426      N1957   2.075       .  S
Co426       N446   2.071       .  S
Co426      N1961   2.079   1_455  S
Co426     Cl1996   2.441   1_455  S
C427        C522   1.461       .  S
C427       N2375   1.347       .  A
N428        N435   1.320       .  A
N428        N458   1.324       .  A
N428       Co461   2.077       .  S
N429       N1211   1.320   1_545  A
N429       N1993   1.322       .  A
N429      Co1954   2.074       .  S
N430        C459   1.352       .  A
N430        N440   1.325       .  A
H431        C456   1.080       .  S
N432        N453   1.324       .  A
N433        N451   1.319       .  A
N433        N438   1.324       .  A
N433      Co1954   2.079       .  S
C434        C462   1.459       .  S
C434        C709   1.470       .  S
C434        N438   1.348       .  A
N435        C450   1.340       .  A
N435       Co457   2.086       .  S
C436       C1967   1.457   1_455  S
C436        H470   1.082       .  S
C436        N464   1.340       .  A
C439       C1964   1.457       .  S
C439        C512   1.463       .  S
C439       N1224   1.350   1_545  A
N440        N446   1.318       .  A
N441        C467   1.342       .  A
N441        N443   1.321       .  A
N441       Co457   2.091       .  S
N442        C456   1.339       .  A
N442      Co1188   2.084       .  S
N443        N471   1.325       .  A
N443       Co461   2.089       .  S
H444        C467   1.081       .  S
H445        C462   1.082       .  S
N447       N1193   1.320       .  A
N447       Co461   2.087       .  S
N448        N460   1.324       .  A
N448       N2756   1.321       .  A
N448       Co457   2.092       .  S
C449        C463   1.462       .  S
C449        C758   1.483       .  S
C449        N453   1.353       .  A
C450        C469   1.460       .  S
C450        H454   1.081       .  S
N451        C462   1.339       .  A
N451      Co1225   2.077   1_545  S
C455        C467   1.461       .  S
C455        C618   1.474       .  S
C455        N471   1.350       .  A
Co457      N1948   2.091       .  S
Co457     Cl1232   2.448       .  S
N458        C469   1.348       .  A
C459        C589   1.475       .  S
N460       C1203   1.351       .  A
Co461      N1215   2.073       .  S
Co461     Cl1232   2.456       .  S
N464       N2740   1.320   1_445  A
N465       C2337   1.347   1_446  A
N465       N1957   1.322       .  A
Cl468     Co1952   2.453       .  S
Cl468     Co1954   2.441       .  S
Cl468     Co1221   2.447   1_545  S
Cl468     Co1225   2.453   1_545  S
C469        C738   1.469       .  S
C472        C509   1.464       .  S
C472        C689   1.480       .  S
C472        N490   1.349       .  A
N473        N490   1.324       .  A
N473        N495   1.319       .  A
N473       Co510   2.078       .  S
C474       C1276   1.455       .  S
C474        H519   1.082       .  S
C474        N499   1.339       .  A
H475        C516   1.081   1_655  S
C476        C480   1.468       .  S
C476        H505   1.081       .  S
C476        N500   1.344       .  A
Co477       N495   2.089       .  S
Co477      N1249   2.087   1_545  S
Co477       N517   2.090       .  S
Co477       N493   2.089       .  S
Co477     Cl2049   2.453   1_455  S
N478        C516   1.338       .  A
N478        N485   1.320       .  A
N478      Co2007   2.080   1_455  S
Co479      N2006   2.080       .  S
Co479       N482   2.082       .  S
Co479       N499   2.077       .  S
Co479       N486   2.092       .  S
Co479     Cl1285   2.450       .  S
C480        C669   1.486       .  S
C480        N518   1.350       .  A
N481       N2780   1.321       .  A
N481        N511   1.325       .  A
N481       Co514   2.081       .  S
N482        N500   1.318       .  A
N482        N518   1.325       .  A
N483       C2040   1.351   1_455  A
N483        N493   1.325       .  A
H484        C509   1.081       .  S
N485        N506   1.325       .  A
N485      Co1241   2.086       .  S
N486        N504   1.319       .  A
N486        N491   1.326       .  A
C487        C515   1.461       .  S
C487        C558   1.482       .  S
C487        N491   1.353       .  A
N488        C503   1.339       .  A
N488       N2773   1.321   1_445  A
N488       Co510   2.082       .  S
C489        C492   1.463       .  S
C489        H523   1.082       .  S
C489        N517   1.343       .  A
C492        C529   1.481       .  S
C492        N513   1.351       .  A
N493       N2791   1.320   1_445  A
N494        C520   1.339       .  A
N494        N496   1.319       .  A
N494      Co2038   2.073       .  S
N495        C509   1.342       .  A
N496        N524   1.323       .  A
N496      Co1278   2.082   1_545  S
H497        C520   1.081       .  S
H498        C515   1.081       .  S
N499       N2785   1.320       .  A
N500       Co514   2.094       .  S
N501        N513   1.325       .  A
N501        N517   1.320       .  A
N501       Co510   2.091       .  S
C502        C516   1.460       .  S
C502        C578   1.478       .  S
C502        N506   1.351       .  A
C503       C2814   1.457   1_455  S
C503        H507   1.082       .  S
N504        C515   1.337       .  A
N504       Co514   2.078       .  S
C508        C520   1.461       .  S
C508        C658   1.478       .  S
C508        N524   1.350       .  A
Co510      N2022   2.073   1_455  S
Co510     Cl2049   2.447   1_455  S
N511        C522   1.349       .  A
C512       C1238   1.455   1_545  S
C512       N2011   1.351       .  A
Co514      N1260   2.089       .  S
Co514     Cl1285   2.452       .  S
Cl521     Co2005   2.453       .  S
Cl521     Co1243   2.448   1_545  S
Cl521     Co2038   2.447       .  S
Cl521     Co1278   2.449   1_545  S
C522       C2795   1.456       .  S
C525        C526   1.403       .  A
C525        C530   1.400       .  A
C525        H535   1.083       .  S
C526        C527   1.406       .  A
C526        C531   1.481       .  S
C527        C528   1.401       .  A
C527        F532   1.358       .  S
C528        C529   1.405       .  A
C528        H533   1.083       .  S
C529        C530   1.407       .  A
C530        F534   1.357       .  S
C531        C536   1.402       .  A
C531        C540   1.404       .  A
C536        C537   1.395       .  A
C536        F541   1.358       .  S
C537        C538   1.408       .  A
C537        H542   1.083       .  S
C538        C539   1.411       .  A
C539        C540   1.404       .  A
C539        F543   1.356       .  S
C540        H544   1.084       .  S
C545        C546   1.402       .  A
C545        C550   1.401       .  A
C545        H555   1.083       .  S
C546        C547   1.402       .  A
C546        C551   1.472       .  S
C547        C548   1.395       .  A
C547        F552   1.358       .  S
C548        C549   1.406       .  A
C548        H553   1.083       .  S
C549        C550   1.409       .  A
C550        F554   1.357       .  S
C551        C556   1.401       .  A
C551        C560   1.402       .  A
C556        C557   1.395       .  A
C556        F561   1.358       .  S
C557        C558   1.406       .  A
C557        H562   1.082       .  S
C558        C559   1.410       .  A
C559        C560   1.401       .  A
C559        F563   1.357       .  S
C560        H564   1.083       .  S
C565        C566   1.402       .  A
C565        C570   1.397       .  A
C565        H575   1.083       .  S
C566        C567   1.405       .  A
C566        C571   1.481       .  S
C567        C568   1.398       .  A
C567        F572   1.358       .  S
C568        C569   1.408       .  A
C568        H573   1.082       .  S
C569        C570   1.412       .  A
C570        F574   1.356       .  S
C571        C576   1.405       .  A
C571        C580   1.405       .  A
C576        C577   1.395       .  A
C576        F581   1.357       .  S
C577        C578   1.404       .  A
C577        H582   1.082       .  S
C578        C579   1.408       .  A
C579        C580   1.400       .  A
C579        F583   1.358       .  S
C580        H584   1.083       .  S
C585        C586   1.403       .  A
C585        C590   1.392       .  A
C585        H595   1.083       .  S
C586        C587   1.406       .  A
C586        C591   1.480       .  S
C587        C588   1.400       .  A
C587        F592   1.356       .  S
C588        C589   1.405       .  A
C588        H593   1.083       .  S
C589        C590   1.407       .  A
C590        F594   1.356       .  S
C591        C596   1.404       .  A
C591        C600   1.405       .  A
C596        C597   1.391       .  A
C596        F601   1.358       .  S
C597        C598   1.406       .  A
C597        H602   1.083       .  S
C598        C599   1.409       .  A
C599        C600   1.401       .  A
C599        F603   1.357       .  S
C600        H604   1.083       .  S
C605        C606   1.407       .  A
C605        C610   1.399       .  A
C605        H615   1.082       .  S
C606        C607   1.411       .  A
C606        C611   1.492       .  S
C607        C608   1.399       .  A
C607        F612   1.357       .  S
C608        C609   1.403       .  A
C608        H613   1.083       .  S
C609        C610   1.406       .  A
C610        F614   1.356       .  S
C611        C616   1.411       .  A
C611        C620   1.408       .  A
C616        C617   1.400       .  A
C616        F621   1.357       .  S
C617        C618   1.402       .  A
C617        H622   1.084       .  S
C618        C619   1.403       .  A
C619        C620   1.400       .  A
C619        F623   1.357       .  S
C620        H624   1.083       .  S
C625        C626   1.403       .  A
C625        C630   1.398       .  A
C625        H635   1.083       .  S
C626        C627   1.409       .  A
C626        C631   1.487       .  S
C627        C628   1.400       .  A
C627        F632   1.357       .  S
C628        C629   1.403       .  A
C628        H633   1.080       .  S
C629        C630   1.411       .  A
C630        F634   1.358       .  S
C631        C636   1.407       .  A
C631        C640   1.403       .  A
C636        C637   1.401       .  A
C636        F641   1.358       .  S
C637        C638   1.407       .  A
C637        H642   1.083       .  S
C638        C639   1.410       .  A
C639        C640   1.398       .  A
C639        F643   1.355       .  S
C640        H644   1.083       .  S
C645        C646   1.406       .  A
C645        C650   1.397       .  A
C645        H655   1.081       .  S
C646        C647   1.406       .  A
C646        C651   1.481       .  S
C647        C648   1.399       .  A
C647        F652   1.358       .  S
C648        C649   1.402       .  A
C648        H653   1.065       .  S
C649        C650   1.404       .  A
C650        F654   1.357       .  S
C651        C656   1.407       .  A
C651        C660   1.403       .  A
C656        C657   1.398       .  A
C656        F661   1.357       .  S
C657        C658   1.406       .  A
C657        H662   1.082       .  S
C658        C659   1.407       .  A
C659        C660   1.396       .  A
C659        F663   1.357       .  S
C660        H664   1.083       .  S
C665        C666   1.402       .  A
C665        C670   1.401       .  A
C665        H675   1.084       .  S
C666        C667   1.404       .  A
C666        C671   1.480       .  S
C667        C668   1.401       .  A
C667        F672   1.358       .  S
C668        C669   1.408       .  A
C668        H673   1.084       .  S
C669        C670   1.409       .  A
C670        F674   1.356       .  S
C671        C676   1.402       .  A
C671        C680   1.404       .  A
C676        C677   1.395       .  A
C676        F681   1.358       .  S
C677        C678   1.408       .  A
C677        H682   1.083       .  S
C678        C679   1.412       .  A
C679        C680   1.404       .  A
C679        F683   1.357       .  S
C680        H684   1.083       .  S
C685        C686   1.402       .  A
C685        C690   1.400       .  A
C685        H695   1.084       .  S
C686        C687   1.403       .  A
C686        C691   1.475       .  S
C687        C688   1.398       .  A
C687        F692   1.357       .  S
C688        C689   1.404       .  A
C688        H693   1.083       .  S
C689        C690   1.411       .  A
C690        F694   1.358       .  S
C691        C696   1.404       .  A
C691        C700   1.399       .  A
C696        C697   1.403       .  A
C696        F701   1.357       .  S
C697        C698   1.407       .  A
C697        H702   1.083       .  S
C698        C699   1.410       .  A
C699        C700   1.395       .  A
C699        F703   1.358       .  S
C700        H704   1.083       .  S
C705        C706   1.403       .  A
C705        C710   1.395       .  A
C705        H715   1.084       .  S
C706        C707   1.406       .  A
C706        C711   1.476       .  S
C707        C708   1.399       .  A
C707        F712   1.357       .  S
C708        C709   1.403       .  A
C708        H713   1.084       .  S
C709        C710   1.405       .  A
C710        F714   1.357       .  S
C711        C716   1.402       .  A
C711        C720   1.402       .  A
C716        C717   1.393       .  A
C716        F721   1.358       .  S
C717        C718   1.408       .  A
C717        H722   1.082       .  S
C718        C719   1.414       .  A
C719        C720   1.400       .  A
C719        F723   1.357       .  S
C720        H724   1.084       .  S
C725        C730   1.397       .  A
C725        H735   1.082       .  S
C726        C727   1.410       .  A
C726        C731   1.486       .  S
C727        C728   1.395       .  A
C727        F732   1.358       .  S
C728        C729   1.401       .  A
C728        H733   1.083       .  S
C730        F734   1.356       .  S
C731        C736   1.410       .  A
C731        C740   1.407       .  A
C736        C737   1.399       .  A
C736        F741   1.358       .  S
C737        C738   1.403       .  A
C737        H742   1.083       .  S
C738        C739   1.401       .  A
C739        C740   1.395       .  A
C739        F743   1.357       .  S
C740        H744   1.082       .  S
C745        C746   1.402       .  A
C745        C750   1.396       .  A
C745        H755   1.083       .  S
C746        C747   1.405       .  A
C746        C751   1.482       .  S
C747        C748   1.399       .  A
C747        F752   1.357   1_556  S
C748        C749   1.408       .  A
C748        H753   1.082   1_556  S
C749        C750   1.412       .  A
C750        F754   1.357       .  S
C751        C756   1.406       .  A
C751        C760   1.403       .  A
C756        C757   1.395       .  A
C756        F761   1.358       .  S
C757        C758   1.404       .  A
C757        H762   1.084       .  S
C758        C759   1.411       .  A
C759        C760   1.402       .  A
C759        F763   1.356       .  S
C765        C766   1.409       .  A
C765        C770   1.404       .  A
C765       C1482   1.492       .  S
C766        C767   1.406       .  A
C766        H771   1.082       .  S
C767        C768   1.406       .  A
C767       C1513   1.492       .  S
C768        C769   1.402       .  A
C768        H772   1.083       .  S
C769        C770   1.402       .  A
C769       C1493   1.478       .  S
C770        H773   1.082       .  S
C774        C775   1.403       .  A
C774        C779   1.404       .  A
C774       C1031   1.479       .  S
C775        C776   1.403       .  A
C775        H780   1.084       .  S
C776        C777   1.406       .  A
C776       C1060   1.487       .  S
C777        C778   1.404       .  A
C777        H781   1.083       .  S
C778        C779   1.404       .  A
C778       C1080   1.486       .  S
C779        H782   1.083       .  S
C783        C784   1.408       .  A
C783        C788   1.406       .  A
C783       C1011   1.496       .  S
C784        C785   1.406       .  A
C784        H789   1.083       .  S
C785        C786   1.402       .  A
C785        C991   1.482       .  S
C786        C787   1.404       .  A
C786        H790   1.083       .  S
C787        C788   1.406       .  A
C787        C980   1.489       .  S
C788        H791   1.082       .  S
C792        C793   1.407       .  A
C792        C797   1.409       .  A
C792        C951   1.492       .  S
C793        C794   1.403       .  A
C793        H798   1.082       .  S
C794        C795   1.404       .  A
C794        C931   1.485       .  S
C795        C796   1.404       .  A
C795        H799   1.083       .  S
C796        C797   1.405       .  A
C796        C920   1.490       .  S
C797        H800   1.082       .  S
C801        C838   1.461       .  S
C801       C1020   1.483       .  S
C801        N819   1.353       .  A
N802        N819   1.326       .  A
N802        N824   1.320       .  A
N802      Co2367   2.093   1_455  S
C803        C841   1.460       .  S
C803        H848   1.081       .  S
C803        N828   1.337       .  A
H804        C845   1.081       .  S
C805       C1191   1.458   1_565  S
C805        H834   1.082       .  S
C805        N829   1.340       .  A
Co806       N814   2.087       .  S
Co806       N846   2.084       .  S
Co806       N822   2.085       .  S
Co806     Cl2378   2.451   1_455  S
N807        C845   1.341       .  A
N807        N814   1.319       .  A
N807       Co808   2.078       .  S
Co808      N2339   2.078   1_455  S
Co808       N828   2.076       .  S
Co808      N2343   2.081   1_455  S
Co808     Cl2378   2.444   1_455  S
C809       C1187   1.460   1_554  S
C809        C904   1.460       .  S
C809       N1993   1.347   1_564  A
N810        N817   1.320       .  A
N810        N840   1.324       .  A
N810       Co843   2.077       .  S
N811       N2375   1.322       .  A
N811      Co2336   2.078       .  S
N812        C841   1.352       .  A
N812        N822   1.325       .  A
H813        C838   1.081   1_545  S
N814        N835   1.323       .  A
N815        N833   1.319       .  A
N815        N820   1.324       .  A
N815      Co2336   2.081       .  S
C816        C844   1.460       .  S
C816       C1091   1.472       .  S
C816        N820   1.349       .  A
N817        C832   1.340       .  A
N817       Co839   2.088       .  S
C818       C2349   1.458   1_455  S
C818        H852   1.082       .  S
C818        N846   1.342       .  A
C821       C2346   1.458       .  S
C821        C894   1.463       .  S
N822        N828   1.319       .  A
N823        C849   1.341       .  A
N823        N825   1.320       .  A
N823       Co839   2.089       .  S
N824        C838   1.339       .  A
N825        N853   1.325       .  A
N825       Co843   2.085       .  S
H826        C849   1.081       .  S
H827        C844   1.081       .  S
N829       Co843   2.081       .  S
N830        N842   1.325       .  A
N830       N1610   1.321   1_565  A
N830       Co839   2.090       .  S
C831        C845   1.462       .  S
C831       C1140   1.480       .  S
C831        N835   1.352       .  A
C832        C851   1.462       .  S
C832        H836   1.081       .  S
N833        C844   1.338       .  A
C837        C849   1.460       .  S
C837       C1000   1.472       .  S
C837        N853   1.350       .  A
Co839      N2330   2.093       .  S
N840        C851   1.348       .  A
C841        C971   1.477       .  S
N846       N1594   1.321   1_455  A
N847       C1955   1.347   1_455  A
N847       N2339   1.322   1_455  A
Cl850     Co2334   2.451       .  S
Cl850     Co2336   2.444       .  S
C851       C1120   1.472       .  S
C854        C891   1.462       .  S
C854       C1071   1.478       .  S
C854        N872   1.349       .  A
N855        N872   1.325       .  A
N855        N877   1.320       .  A
N855       Co892   2.079       .  S
C856        H901   1.082       .  S
C856        N881   1.339       .  A
H857        C898   1.081   1_655  S
C858        C862   1.466       .  S
C858        H887   1.080       .  S
C858        N882   1.342       .  A
Co859       N877   2.090       .  S
Co859       N899   2.091       .  S
Co859       N875   2.093       .  S
Co859     Cl2431   2.450   1_455  S
N860        C898   1.339       .  A
N860        N867   1.320       .  A
N860      Co2389   2.079   1_455  S
Co861      N2388   2.078       .  S
Co861       N864   2.080       .  S
Co861       N881   2.079       .  S
Co861       N868   2.087       .  S
C862       C1051   1.484       .  S
C862        N900   1.350       .  A
N863       N1634   1.320   1_565  A
N863        N893   1.324       .  A
N863       Co896   2.080       .  S
N864        N882   1.318       .  A
N864        N900   1.323       .  A
N865       C2422   1.351   1_455  A
N865        N875   1.326       .  A
H866        C891   1.081       .  S
N867        N888   1.324       .  A
N868        N886   1.319       .  A
N868        N873   1.325       .  A
C869        C897   1.462       .  S
C869        C940   1.480       .  S
C869        N873   1.352       .  A
N870        C885   1.338       .  A
N870       N1627   1.321   1_455  A
N870       Co892   2.086       .  S
C871        C874   1.463       .  S
C871        H905   1.081       .  S
C871        N899   1.342       .  A
C874        C911   1.483       .  S
C874        N895   1.352       .  A
N875       N1645   1.320   1_455  A
N876        C902   1.338       .  A
N876        N878   1.319       .  A
N876      Co2420   2.074       .  S
N877        C891   1.341       .  A
N878        N906   1.323       .  A
H879        C902   1.081       .  S
H880        C897   1.081       .  S
N881       N1639   1.320   1_565  A
N882       Co896   2.086       .  S
N883        N895   1.326       .  A
N883        N899   1.320       .  A
N883       Co892   2.093       .  S
C884        C898   1.460       .  S
C884        C960   1.479       .  S
C884        N888   1.351       .  A
C885       C1668   1.458   1_455  S
C885        H889   1.081       .  S
N886        C897   1.339       .  A
N886       Co896   2.082       .  S
C890        C902   1.461       .  S
C890       C1040   1.479       .  S
C890        N906   1.350       .  A
Co892      N2404   2.074   1_455  S
Co892     Cl2431   2.450   1_455  S
N893        C904   1.348       .  A
C894       N2393   1.351       .  A
Cl903     Co2387   2.450       .  S
Cl903     Co2420   2.450       .  S
C904       C1649   1.458   1_565  S
C907        C908   1.402       .  A
C907        C912   1.400       .  A
C907        H917   1.083       .  S
C908        C909   1.404       .  A
C908        C913   1.478       .  S
C909        C910   1.401       .  A
C909        F914   1.358       .  S
C910        C911   1.407       .  A
C910        H915   1.083       .  S
C911        C912   1.408       .  A
C912        F916   1.357       .  S
C913        C918   1.402       .  A
C913        C922   1.403       .  A
C918        C919   1.395       .  A
C918        F923   1.358       .  S
C919        C920   1.407       .  A
C919        H924   1.083       .  S
C920        C921   1.411       .  A
C921        C922   1.403       .  A
C921        F925   1.357       .  S
C922        H926   1.084       .  S
C927        C928   1.402       .  A
C927        C932   1.401       .  A
C927        H937   1.083       .  S
C928        C929   1.402       .  A
C928        C933   1.474       .  S
C929        C930   1.395       .  A
C929        F934   1.358       .  S
C930        C931   1.406       .  A
C930        H935   1.083       .  S
C931        C932   1.409       .  A
C932        F936   1.357       .  S
C933        C938   1.403       .  A
C933        C942   1.401       .  A
C938        C939   1.398       .  A
C938        F943   1.358       .  S
C939        C940   1.406       .  A
C939        H944   1.082       .  S
C940        C941   1.409       .  A
C941        C942   1.399       .  A
C941        F945   1.357       .  S
C942        H946   1.083       .  S
C947        C948   1.404       .  A
C947        C952   1.396       .  A
C947        H957   1.083       .  S
C948        C949   1.405       .  A
C948        C953   1.483       .  S
C949        C950   1.398       .  A
C949        F954   1.357       .  S
C950        C951   1.409       .  A
C950        H955   1.082       .  S
C951        C952   1.410       .  A
C952        F956   1.355       .  S
C953        C958   1.407       .  A
C953        C962   1.404       .  A
C958        C959   1.398       .  A
C958        F963   1.358       .  S
C959        C960   1.406       .  A
C959        H964   1.082       .  S
C960        C961   1.407       .  A
C961        C962   1.396       .  A
C961        F965   1.357       .  S
C962        H966   1.083       .  S
C967        C968   1.403       .  A
C967        C972   1.395       .  A
C967        H977   1.083       .  S
C968        C969   1.405       .  A
C968        C973   1.481       .  S
C969        C970   1.401       .  A
C969        F974   1.356       .  S
C970        C971   1.405       .  A
C970        H975   1.082       .  S
C971        C972   1.408       .  A
C972        F976   1.357       .  S
C973        C978   1.404       .  A
C973        C982   1.405       .  A
C978        C979   1.393       .  A
C978        F983   1.358       .  S
C979        C980   1.407       .  A
C979        H984   1.083       .  S
C980        C981   1.410       .  A
C981        C982   1.401       .  A
C981        F985   1.357       .  S
C982        H986   1.083       .  S
C987        C988   1.407       .  A
C987        C992   1.398       .  A
C987        H997   1.083       .  S
C988        C989   1.410       .  A
C988        C993   1.490       .  S
C989        C990   1.398       .  A
C989        F994   1.357       .  S
C990        C991   1.403       .  A
C990        H995   1.083       .  S
C991        C992   1.405       .  A
C992        F996   1.356       .  S
C993        C998   1.410       .  A
C993       C1002   1.408       .  A
C998        C999   1.399       .  A
C998       F1003   1.357       .  S
C999       C1000   1.402       .  A
C999       H1004   1.084       .  S
C1000      C1001   1.402       .  A
C1001      C1002   1.399       .  A
C1001      F1005   1.357       .  S
C1002      H1006   1.083       .  S
C1007      C1008   1.401       .  A
C1007      C1012   1.397       .  A
C1007      H1017   1.083       .  S
C1008      C1009   1.407       .  A
C1008      C1013   1.485       .  S
C1009      C1010   1.401       .  A
C1009      F1014   1.358       .  S
C1010      C1011   1.407       .  A
C1010      H1015   1.081       .  S
C1011      C1012   1.414       .  A
C1012      F1016   1.357       .  S
C1013      C1018   1.407       .  A
C1013      C1022   1.404       .  A
C1018      C1019   1.401       .  A
C1018      F1023   1.357       .  S
C1019      C1020   1.405       .  A
C1019      H1024   1.083       .  S
C1020      C1021   1.409       .  A
C1021      C1022   1.399       .  A
C1021      F1025   1.357       .  S
C1022      H1026   1.083       .  S
C1027      C1028   1.405       .  A
C1027      C1032   1.397       .  A
C1027      H1037   1.082       .  S
C1028      C1029   1.405       .  A
C1028      C1033   1.479       .  S
C1029      C1030   1.396       .  A
C1029      F1034   1.358       .  S
C1030      C1031   1.402       .  A
C1030      H1035   1.069       .  S
C1031      C1032   1.405       .  A
C1032      F1036   1.357       .  S
C1033      C1038   1.406       .  A
C1033      C1042   1.403       .  A
C1038      C1039   1.397       .  A
C1038      F1043   1.358       .  S
C1039      C1040   1.406       .  A
C1039      H1044   1.081       .  S
C1040      C1041   1.408       .  A
C1041      C1042   1.396       .  A
C1041      F1045   1.357       .  S
C1042      H1046   1.083       .  S
C1047      C1048   1.400       .  A
C1047      C1052   1.399       .  A
C1047      H1057   1.084       .  S
C1048      C1049   1.402       .  A
C1048      C1053   1.472       .  S
C1049      C1050   1.398       .  A
C1049      F1054   1.358       .  S
C1050      C1051   1.408       .  A
C1050      H1055   1.084       .  S
C1051      C1052   1.411       .  A
C1052      F1056   1.355       .  S
C1053      C1058   1.400       .  A
C1053      C1062   1.402       .  A
C1058      C1059   1.393       .  A
C1058      F1063   1.358       .  S
C1059      C1060   1.407       .  A
C1059      H1064   1.083       .  S
C1060      C1061   1.412       .  A
C1061      C1062   1.403       .  A
C1061      F1065   1.357       .  S
C1062      H1066   1.083       .  S
C1067      C1068   1.404       .  A
C1067      C1072   1.401       .  A
C1067      H1077   1.084       .  S
C1068      C1069   1.404       .  A
C1068      C1073   1.478       .  S
C1069      C1070   1.397       .  A
C1069      F1074   1.357       .  S
C1070      C1071   1.403       .  A
C1070      H1075   1.083       .  S
C1071      C1072   1.410       .  A
C1072      F1076   1.358       .  S
C1073      C1078   1.405       .  A
C1073      C1082   1.401       .  A
C1078      C1079   1.400       .  A
C1078      F1083   1.357       .  S
C1079      C1080   1.406       .  A
C1079      H1084   1.083       .  S
C1080      C1081   1.410       .  A
C1081      C1082   1.396       .  A
C1081      F1085   1.358       .  S
C1082      H1086   1.083       .  S
C1087      C1088   1.402       .  A
C1087      C1092   1.394       .  A
C1087      H1097   1.084       .  S
C1088      C1089   1.405       .  A
C1088      C1093   1.476       .  S
C1089      C1090   1.399       .  A
C1089      F1094   1.357       .  S
C1090      C1091   1.404       .  A
C1090      H1095   1.084       .  S
C1091      C1092   1.406       .  A
C1092      F1096   1.357       .  S
C1093      C1098   1.403       .  A
C1093      C1102   1.402       .  A
C1098      C1099   1.393       .  A
C1098      F1103   1.358       .  S
C1099      C1100   1.407       .  A
C1099      H1104   1.083       .  S
C1100      C1101   1.412       .  A
C1100      C1147   1.488       .  S
C1101      C1102   1.399       .  A
C1101      F1105   1.357       .  S
C1102      H1106   1.083       .  S
C1107      C1490   1.407       .  A
C1107      C1112   1.399       .  A
C1107      H1117   1.082   1_556  S
C1108      C1489   1.408       .  A
C1108      C1109   1.410       .  A
C1108      C1113   1.489       .  S
C1109      C1110   1.393       .  A
C1109      F1114   1.358       .  S
C1110      C1111   1.400       .  A
C1110      H1115   1.083       .  S
C1111      C1494   1.405       .  A
C1111      C1151   1.477       .  S
C1112      C1493   1.405       .  A
C1112      F1116   1.356   1_556  S
C1113      C1118   1.410       .  A
C1113      C1122   1.407       .  A
C1118      C1119   1.400       .  A
C1118      F1123   1.357       .  S
C1119      C1120   1.404       .  A
C1119      H1124   1.083       .  S
C1120      C1121   1.401       .  A
C1121      C1122   1.395       .  A
C1121      F1125   1.357       .  S
C1122      H1126   1.082       .  S
C1127      C1128   1.402       .  A
C1127      C1132   1.395       .  A
C1127      H1137   1.083       .  S
C1128      C1129   1.406       .  A
C1128      C1133   1.483       .  S
C1129      C1130   1.400       .  A
C1129      F1134   1.357       .  S
C1130      C1131   1.409       .  A
C1130      H1135   1.082       .  S
C1131      C1132   1.413       .  A
C1131      C1149   1.493       .  S
C1132      F1136   1.357       .  S
C1133      C1138   1.407       .  A
C1133      C1142   1.405       .  A
C1138      C1139   1.393       .  A
C1138      F1143   1.358       .  S
C1139      C1140   1.403       .  A
C1139      H1144   1.083       .  S
C1140      C1141   1.410       .  A
C1141      C1142   1.402       .  A
C1141      F1145   1.356       .  S
C1142      H1528   1.083       .  S
H1146      C1524   1.084   1_554  S
C1147      C1148   1.407       .  A
C1147      C1152   1.401       .  A
C1148      C1149   1.407       .  A
C1148      H1153   1.082       .  S
C1149      C1150   1.408       .  A
C1150      C1151   1.401       .  A
C1150      H1154   1.083       .  S
C1151      C1152   1.401       .  A
C1152      H1155   1.083       .  S
C1156      C1157   1.403       .  A
C1156      C1161   1.403       .  A
C1156      C1413   1.477       .  S
C1157      C1158   1.405       .  A
C1157      H1162   1.083       .  S
C1158      C1159   1.407       .  A
C1158      C1442   1.491       .  S
C1159      C1160   1.406       .  A
C1159      H1163   1.083       .  S
C1160      C1161   1.404       .  A
C1160      C1462   1.487       .  S
C1161      H1164   1.083       .  S
C1165      C1166   1.409       .  A
C1165      C1170   1.404       .  A
C1165      C1393   1.493       .  S
C1166      C1167   1.406       .  A
C1166      H1171   1.083       .  S
C1167      C1168   1.403       .  A
C1167      C1373   1.481       .  S
C1168      C1169   1.403       .  A
C1168      H1172   1.083       .  S
C1169      C1170   1.403       .  A
C1169      C1362   1.484       .  S
C1170      H1173   1.082       .  S
C1174      C1175   1.405       .  A
C1174      C1179   1.409       .  A
C1174      C1333   1.490       .  S
C1175      C1176   1.404       .  A
C1175      H1180   1.082       .  S
C1176      C1177   1.406       .  A
C1176      C1313   1.491       .  S
C1177      C1178   1.406       .  A
C1177      H1181   1.083       .  S
C1178      C1179   1.406       .  A
C1178      C1302   1.491       .  S
C1179      H1182   1.082       .  S
C1183      C1220   1.462       .  S
C1183      C1402   1.481       .  S
C1183      N1201   1.352       .  A
N1184      N1201   1.325       .  A
N1184      N1206   1.320       .  A
N1184     Co2749   2.089   1_455  S
C1185      C1223   1.458       .  S
C1185      H1230   1.082       .  S
C1185      N1210   1.336       .  A
H1186      C1227   1.081       .  S
C1187      H1216   1.082       .  S
C1187      N1211   1.341       .  A
Co1188     N1196   2.087       .  S
Co1188     N1228   2.082       .  S
Co1188     N1204   2.089       .  S
Co1188    Cl2760   2.452   1_455  S
N1189      C1227   1.343       .  A
N1189      N1196   1.318       .  A
N1189     Co1190   2.085       .  S
Co1190     N2721   2.073   1_455  S
Co1190     N1210   2.072       .  S
Co1190     N2725   2.085   1_455  S
Co1190    Cl2760   2.443   1_455  S
C1191      C1286   1.461       .  S
C1191      N1611   1.348       .  A
N1192      N1199   1.320       .  A
N1192      N1222   1.324       .  A
N1192     Co1225   2.080       .  S
N1193      N2757   1.321       .  A
N1193     Co2718   2.073       .  S
N1194      C1223   1.352       .  A
N1194      N1204   1.326       .  A
H1195      C1220   1.081   1_545  S
N1196      N1217   1.323       .  A
N1197      N1215   1.319       .  A
N1197      N1202   1.324       .  A
N1197     Co2718   2.085       .  S
C1198      C1226   1.458       .  S
C1198      C1473   1.471       .  S
C1198      N1202   1.349       .  A
N1199      C1214   1.340       .  A
N1199     Co1221   2.083       .  S
C1200      C2731   1.458   1_455  S
C1200      H1234   1.082       .  S
C1200      N1228   1.342       .  A
C1203      C2728   1.458       .  S
C1203      C1276   1.467       .  S
N1204      N1210   1.319       .  A
N1205      C1231   1.342       .  A
N1205      N1207   1.320       .  A
N1205     Co1221   2.090       .  S
N1206      C1220   1.339       .  A
N1207      N1235   1.325       .  A
N1207     Co1225   2.087       .  S
H1208      C1231   1.081       .  S
H1209      C1226   1.082       .  S
N1211     Co1225   2.085       .  S
N1212      N1224   1.324       .  A
N1212      N1992   1.320   1_565  A
N1212     Co1221   2.087       .  S
C1213      C1227   1.465       .  S
C1213      C1522   1.485       .  S
C1213      N1217   1.352       .  A
C1214      C1233   1.459       .  S
C1214      H1218   1.081       .  S
N1215      C1226   1.339       .  A
C1219      C1231   1.462       .  S
C1219      C1382   1.476       .  S
C1219      N1235   1.350       .  A
Co1221     N2712   2.089       .  S
N1222      C1233   1.348       .  A
C1223      C1353   1.475       .  S
N1228      N1976   1.321   1_455  A
N1229      C1573   1.345   1_456  A
N1229      N2721   1.321   1_455  A
Cl1232    Co2716   2.453       .  S
Cl1232    Co2718   2.443       .  S
C1233      C1502   1.469       .  S
C1236      C1273   1.462       .  S
C1236      C1453   1.477       .  S
C1236      N1254   1.349       .  A
N1237      N1254   1.325       .  A
N1237      N1259   1.319       .  A
N1237     Co1274   2.076       .  S
C1238      H1283   1.081       .  S
C1238      N1263   1.338       .  A
H1239      C1280   1.081   1_655  S
C1240      C1244   1.466       .  S
C1240      H1269   1.081       .  S
C1240      N1264   1.343       .  A
Co1241     N1259   2.089       .  S
Co1241     N1281   2.091       .  S
Co1241     N1257   2.096       .  S
Co1241    Cl2813   2.452   1_455  S
N1242      C1280   1.338       .  A
N1242      N1249   1.320       .  A
N1242     Co2771   2.078   1_455  S
Co1243     N2770   2.078       .  S
Co1243     N1246   2.082       .  S
Co1243     N1263   2.076       .  S
Co1243     N1250   2.086       .  S
C1244      C1433   1.485       .  S
C1244      N1282   1.351       .  A
N1245      N2016   1.321   1_565  A
N1245      N1275   1.324       .  A
N1245     Co1278   2.083       .  S
N1246      N1264   1.318       .  A
N1246      N1282   1.324       .  A
N1247      C2804   1.352   1_455  A
N1247      N1257   1.327       .  A
H1248      C1273   1.081       .  S
N1249      N1270   1.324       .  A
N1250      N1268   1.319       .  A
N1250      N1255   1.325       .  A
C1251      C1279   1.462       .  S
C1251      C1322   1.481       .  S
C1251      N1255   1.352       .  A
N1252      C1267   1.338       .  A
N1252      N2009   1.321   1_455  A
N1252     Co1274   2.084       .  S
C1253      C1256   1.462       .  S
C1253      H1287   1.081       .  S
C1253      N1281   1.342       .  A
C1256      C1293   1.483       .  S
C1256      N1277   1.353       .  A
N1257      N2027   1.320   1_455  A
N1258      C1284   1.339       .  A
N1258      N1260   1.319       .  A
N1258     Co2802   2.074       .  S
N1259      C1273   1.341       .  A
N1260      N1288   1.324       .  A
H1261      C1284   1.081       .  S
H1262      C1279   1.081       .  S
N1263      N2021   1.320   1_565  A
N1264     Co1278   2.089       .  S
N1265      N1277   1.326       .  A
N1265      N1281   1.321       .  A
N1265     Co1274   2.096       .  S
C1266      C1280   1.459       .  S
C1266      C1342   1.476       .  S
C1266      N1270   1.351       .  A
C1267      C2050   1.456   1_455  S
C1267      H1271   1.081       .  S
N1268      C1279   1.339       .  A
N1268     Co1278   2.081       .  S
C1272      C1284   1.461       .  S
C1272      C1422   1.480       .  S
C1272      N1288   1.352       .  A
Co1274     N2786   2.074   1_455  S
Co1274    Cl2813   2.448   1_455  S
N1275      C1286   1.349   1_565  A
C1276      N2775   1.352       .  A
Cl1285    Co2769   2.452       .  S
Cl1285    Co2802   2.448       .  S
C1286      C2031   1.457       .  S
C1289      C1290   1.403       .  A
C1289      C1294   1.401       .  A
C1289      H1299   1.083       .  S
C1290      C1291   1.405       .  A
C1290      C1295   1.481       .  S
C1291      C1292   1.401       .  A
C1291      F1296   1.358       .  S
C1292      C1293   1.406       .  A
C1292      H1297   1.083       .  S
C1293      C1294   1.407       .  A
C1294      F1298   1.357       .  S
C1295      C1300   1.403       .  A
C1295      C1304   1.404       .  A
C1300      C1301   1.396       .  A
C1300      F1305   1.358       .  S
C1301      C1302   1.407       .  A
C1301      H1306   1.084       .  S
C1302      C1303   1.411       .  A
C1303      C1304   1.404       .  A
C1303      F1307   1.356       .  S
C1304      H1308   1.084       .  S
C1309      C1310   1.401       .  A
C1309      C1314   1.400       .  A
C1309      H1319   1.083       .  S
C1310      C1311   1.402       .  A
C1310      C1315   1.475       .  S
C1311      C1312   1.396       .  A
C1311      F1316   1.358       .  S
C1312      C1313   1.408       .  A
C1312      H1317   1.082       .  S
C1313      C1314   1.412       .  A
C1314      F1318   1.357       .  S
C1315      C1320   1.402       .  A
C1315      C1324   1.402       .  A
C1320      C1321   1.396       .  A
C1320      F1325   1.358       .  S
C1321      C1322   1.405       .  A
C1321      H1326   1.082       .  S
C1322      C1323   1.410       .  A
C1323      C1324   1.400       .  A
C1323      F1327   1.357       .  S
C1324      H1328   1.083       .  S
C1329      C1330   1.402       .  A
C1329      C1334   1.397       .  A
C1329      H1339   1.084       .  S
C1330      C1331   1.404       .  A
C1330      C1335   1.478       .  S
C1331      C1332   1.397       .  A
C1331      F1336   1.358       .  S
C1332      C1333   1.407       .  A
C1332      H1337   1.082       .  S
C1333      C1334   1.411       .  A
C1334      F1338   1.356       .  S
C1335      C1340   1.405       .  A
C1335      C1344   1.404       .  A
C1340      C1341   1.396       .  A
C1340      F1345   1.358       .  S
C1341      C1342   1.405       .  A
C1341      H1346   1.082       .  S
C1342      C1343   1.407       .  A
C1343      C1344   1.399       .  A
C1343      F1347   1.358       .  S
C1344      H1348   1.083       .  S
C1349      C1350   1.403       .  A
C1349      C1354   1.393       .  A
C1349      H1359   1.083       .  S
C1350      C1351   1.406       .  A
C1350      C1355   1.480       .  S
C1351      C1352   1.402       .  A
C1351      F1356   1.357       .  S
C1352      C1353   1.405       .  A
C1352      H1357   1.082       .  S
C1353      C1354   1.407       .  A
C1354      F1358   1.357       .  S
C1355      C1360   1.404       .  A
C1355      C1364   1.405       .  A
C1360      C1361   1.392       .  A
C1360      F1365   1.358       .  S
C1361      C1362   1.405       .  A
C1361      H1366   1.083       .  S
C1362      C1363   1.408       .  A
C1363      C1364   1.402       .  A
C1363      F1367   1.357       .  S
C1364      H1368   1.083       .  S
C1369      C1370   1.407       .  A
C1369      C1374   1.399       .  A
C1369      H1379   1.082       .  S
C1370      C1371   1.411       .  A
C1370      C1375   1.492       .  S
C1371      C1372   1.400       .  A
C1371      F1376   1.358       .  S
C1372      C1373   1.402       .  A
C1372      H1377   1.083       .  S
C1373      C1374   1.404       .  A
C1374      F1378   1.355       .  S
C1375      C1380   1.411       .  A
C1375      C1384   1.408       .  A
C1380      C1381   1.400       .  A
C1380      F1385   1.357       .  S
C1381      C1382   1.403       .  A
C1381      H1386   1.084       .  S
C1382      C1383   1.403       .  A
C1383      C1384   1.399       .  A
C1383      F1387   1.357       .  S
C1384      H1388   1.083       .  S
C1389      C1390   1.401       .  A
C1389      C1394   1.397       .  A
C1389      H1399   1.083       .  S
C1390      C1391   1.407       .  A
C1390      C1395   1.483       .  S
C1391      C1392   1.400       .  A
C1391      F1396   1.357       .  S
C1392      C1393   1.406       .  A
C1392      H1397   1.081       .  S
C1393      C1394   1.414       .  A
C1394      F1398   1.357       .  S
C1395      C1400   1.407       .  A
C1395      C1404   1.403       .  A
C1400      C1401   1.400       .  A
C1400      F1405   1.358       .  S
C1401      C1402   1.406       .  A
C1401      H1406   1.083       .  S
C1402      C1403   1.408       .  A
C1403      C1404   1.397       .  A
C1403      F1407   1.356       .  S
C1404      H1408   1.083       .  S
C1409      C1410   1.406       .  A
C1409      C1414   1.397       .  A
C1409      H1419   1.080       .  S
C1410      C1411   1.408       .  A
C1410      C1415   1.484       .  S
C1411      C1412   1.400       .  A
C1411      F1416   1.358       .  S
C1412      C1413   1.402       .  A
C1412      H1417   1.066       .  S
C1413      C1414   1.403       .  A
C1414      F1418   1.357       .  S
C1415      C1420   1.407       .  A
C1415      C1424   1.405       .  A
C1420      C1421   1.398       .  A
C1420      F1425   1.357       .  S
C1421      C1422   1.406       .  A
C1421      H1426   1.082       .  S
C1422      C1423   1.407       .  A
C1423      C1424   1.397       .  A
C1423      F1427   1.357       .  S
C1424      H1428   1.083       .  S
C1429      C1430   1.401       .  A
C1429      C1434   1.400       .  A
C1429      H1439   1.084       .  S
C1430      C1431   1.403       .  A
C1430      C1435   1.476       .  S
C1431      C1432   1.400       .  A
C1431      F1436   1.358       .  S
C1432      C1433   1.407       .  A
C1432      H1437   1.084       .  S
C1433      C1434   1.410       .  A
C1434      F1438   1.356       .  S
C1435      C1440   1.401       .  A
C1435      C1444   1.402       .  A
C1440      C1441   1.396       .  A
C1440      F1445   1.358       .  S
C1441      C1442   1.408       .  A
C1441      H1446   1.083       .  S
C1442      C1443   1.412       .  A
C1443      C1444   1.402       .  A
C1443      F1447   1.357       .  S
C1444      H1448   1.083       .  S
C1449      C1450   1.403       .  A
C1449      C1454   1.400       .  A
C1449      H1459   1.084       .  S
C1450      C1451   1.404       .  A
C1450      C1455   1.477       .  S
C1451      C1452   1.397       .  A
C1451      F1456   1.357       .  S
C1452      C1453   1.403       .  A
C1452      H1457   1.083       .  S
C1453      C1454   1.409       .  A
C1454      F1458   1.358       .  S
C1455      C1460   1.404       .  A
C1455      C1464   1.401       .  A
C1460      C1461   1.401       .  A
C1460      F1465   1.357       .  S
C1461      C1462   1.407       .  A
C1461      H1466   1.083       .  S
C1462      C1463   1.410       .  A
C1463      C1464   1.396       .  A
C1463      F1467   1.358       .  S
C1464      H1468   1.084       .  S
C1469      C1470   1.403       .  A
C1469      C1474   1.396       .  A
C1469      H1479   1.084       .  S
C1470      C1471   1.405       .  A
C1470      C1475   1.476       .  S
C1471      C1472   1.398       .  A
C1471      F1476   1.357       .  S
C1472      C1473   1.403       .  A
C1472      H1477   1.083       .  S
C1473      C1474   1.406       .  A
C1474      F1478   1.357       .  S
C1475      C1480   1.401       .  A
C1475      C1484   1.402       .  A
C1480      C1481   1.393       .  A
C1480      F1485   1.358       .  S
C1481      C1482   1.408       .  A
C1481      H1486   1.082       .  S
C1482      C1483   1.414       .  A
C1483      C1484   1.400       .  A
C1483      F1487   1.357       .  S
C1484      H1488   1.084       .  S
C1489      C1494   1.401       .  A
C1489      H1499   1.082       .  S
C1490      C1491   1.409       .  A
C1490      C1495   1.485       .  S
C1491      C1492   1.394       .  A
C1491      F1496   1.358       .  S
C1492      C1493   1.402       .  A
C1492      H1497   1.083       .  S
C1494      F1498   1.356       .  S
C1495      C1500   1.409       .  A
C1495      C1504   1.407       .  A
C1500      C1501   1.399       .  A
C1500      F1505   1.357       .  S
C1501      C1502   1.403       .  A
C1501      H1506   1.083       .  S
C1502      C1503   1.401       .  A
C1503      C1504   1.396       .  A
C1503      F1507   1.357       .  S
C1504      H1508   1.083       .  S
C1509      C1510   1.404       .  A
C1509      C1514   1.396       .  A
C1509      H1519   1.083       .  S
C1510      C1511   1.408       .  A
C1510      C1515   1.488       .  S
C1511      C1512   1.401       .  A
C1511      F1516   1.357   1_556  S
C1512      C1513   1.407       .  A
C1512      H1517   1.083   1_556  S
C1513      C1514   1.412       .  A
C1514      F1518   1.358       .  S
C1515      C1520   1.408       .  A
C1515      C1524   1.406       .  A
C1520      C1521   1.396       .  A
C1520      F1525   1.358       .  S
C1521      C1522   1.404       .  A
C1521      H1526   1.084       .  S
C1522      C1523   1.410       .  A
C1523      C1524   1.403       .  A
C1523      F1527   1.356       .  S
C1529      C1530   1.410       .  A
C1529      C1534   1.405       .  A
C1529      C2246   1.493       .  S
C1530      C1531   1.406       .  A
C1530      H1535   1.082       .  S
C1531      C1532   1.405       .  A
C1531      C2277   1.491       .  S
C1532      C1533   1.400       .  A
C1532      H1536   1.083       .  S
C1533      C1534   1.401       .  A
C1533      C2257   1.476       .  S
C1534      H1537   1.082       .  S
C1538      C1539   1.405       .  A
C1538      C1543   1.406       .  A
C1538      C1795   1.481       .  S
C1539      C1540   1.404       .  A
C1539      H1544   1.083       .  S
C1540      C1541   1.404       .  A
C1540      C1824   1.487       .  S
C1541      C1542   1.402       .  A
C1541      H1545   1.083       .  S
C1542      C1543   1.403       .  A
C1542      C1844   1.482       .  S
C1543      H1546   1.083       .  S
C1547      C1548   1.407       .  A
C1547      C1552   1.404       .  A
C1547      C1775   1.493       .  S
C1548      C1549   1.407       .  A
C1548      H1553   1.083       .  S
C1549      C1550   1.403       .  A
C1549      C1755   1.484       .  S
C1550      C1551   1.405       .  A
C1550      H1554   1.083       .  S
C1551      C1552   1.405       .  A
C1551      C1744   1.489       .  S
C1552      H1555   1.082       .  S
C1556      C1557   1.411       .  A
C1556      C1561   1.412       .  A
C1556      C1715   1.498       .  S
C1557      C1558   1.405       .  A
C1557      H1562   1.082       .  S
C1558      C1559   1.401       .  A
C1558      C1695   1.484       .  S
C1559      C1560   1.401       .  A
C1559      H1563   1.084       .  S
C1560      C1561   1.405       .  A
C1560      C1684   1.488       .  S
C1561      H1564   1.082       .  S
C1565      C1602   1.464       .  S
C1565      C1784   1.486       .  S
C1565      N1583   1.353       .  A
N1566      N1583   1.326       .  A
N1566      N1588   1.319       .  A
C1567      C1605   1.458       .  S
C1567      H1612   1.080       .  S
C1567      N1592   1.335       .  A
H1568      C1609   1.081       .  S
C1569      C1955   1.459       .  S
C1569      H1598   1.082       .  S
C1569      N1593   1.341       .  A
Co1570     N2352   2.083   1_545  S
Co1570     N1578   2.084       .  S
Co1570     N1610   2.083       .  S
Co1570     N1586   2.091       .  S
N1571      C1609   1.341       .  A
N1571      N1578   1.318       .  A
N1571     Co1572   2.078       .  S
Co1572     N1592   2.071       .  S
C1573      C1951   1.461   1_554  S
C1573      C1668   1.459       .  S
N1574      N1581   1.320       .  A
N1574      N1604   1.324       .  A
N1574     Co1607   2.080       .  S
N1575      N2357   1.320   1_445  A
N1576      C1605   1.354       .  A
N1576      N1586   1.327       .  A
H1577      C1602   1.080       .  S
N1578      N1599   1.322       .  A
N1579      N1597   1.319       .  A
N1579      N1584   1.323       .  A
C1580      C1608   1.459       .  S
C1580      C1855   1.467       .  S
C1580      N1584   1.347       .  A
N1581      C1596   1.338       .  A
N1581     Co1603   2.079       .  S
C1582      H1616   1.082       .  S
C1582      N1610   1.341       .  A
C1585      C1658   1.466       .  S
C1585      N2370   1.350   1_545  A
N1586      N1592   1.318       .  A
N1587      C1613   1.342       .  A
N1587      N1589   1.320       .  A
N1587     Co1603   2.090       .  S
N1588      C1602   1.339       .  A
N1588     Co2334   2.080       .  S
N1589      N1617   1.324       .  A
N1589     Co1607   2.081       .  S
H1590      C1613   1.081       .  S
H1591      C1608   1.081       .  S
N1593      N2339   1.319       .  A
N1593     Co1607   2.081       .  S
N1594      N1606   1.323       .  A
N1594     Co1603   2.085       .  S
C1595      C1609   1.463       .  S
C1595      C1904   1.480       .  S
C1595      N1599   1.351       .  A
C1596      C1615   1.458       .  S
C1596      H1600   1.081       .  S
N1597      C1608   1.338       .  A
N1597     Co2371   2.076   1_545  S
C1601      C1613   1.462       .  S
C1601      C1764   1.472       .  S
C1601      N1617   1.349       .  A
Co1603    Cl2378   2.447       .  S
N1604      C1615   1.349       .  A
C1605      C1735   1.480       .  S
N1606      C2349   1.349       .  A
Co1607     N2361   2.076       .  S
Co1607    Cl2378   2.452       .  S
Cl1614    Co2367   2.449   1_545  S
Cl1614    Co2371   2.452   1_545  S
C1615      C1884   1.469       .  S
C1618      C1655   1.463       .  S
C1618      C1835   1.478       .  S
C1618      N1636   1.349       .  A
N1619      N1636   1.324       .  A
N1619      N1641   1.319       .  A
N1619     Co1656   2.076       .  S
C1620      C2422   1.455       .  S
C1620      H1665   1.081       .  S
C1620      N1645   1.337       .  A
H1621      C1662   1.081       .  S
C1622      C1626   1.468       .  S
C1622      H1651   1.080       .  S
C1622      N1646   1.343       .  A
Co1623     N1641   2.089       .  S
Co1623     N2395   2.088   1_545  S
Co1623     N1663   2.090       .  S
Co1623     N1639   2.092       .  S
N1624      C1662   1.339       .  A
N1624      N1631   1.320       .  A
Co1625     N1628   2.081       .  S
Co1625     N1645   2.074       .  S
Co1625     N1632   2.093       .  S
Co1625    Cl2431   2.451       .  S
C1626      C1815   1.487       .  S
C1626      N1664   1.351       .  A
N1627      N1657   1.324       .  A
N1627     Co1660   2.075       .  S
N1628      N1646   1.317       .  A
N1628      N1664   1.323       .  A
N1629      N1639   1.326       .  A
H1630      C1655   1.081       .  S
N1631      N1652   1.325       .  A
N1631     Co2387   2.089       .  S
N1632      N1650   1.318       .  A
N1632      N1637   1.328       .  A
C1633      C1661   1.463       .  S
C1633      C1704   1.486       .  S
C1633      N1637   1.355       .  A
N1634      C1649   1.339       .  A
N1634     Co1656   2.083       .  S
C1635      C1638   1.463       .  S
C1635      H1669   1.082       .  S
C1635      N1663   1.343       .  A
C1638      C1675   1.477       .  S
C1638      N1659   1.350       .  A
N1640      C1666   1.339       .  A
N1640      N1642   1.318       .  A
N1641      C1655   1.341       .  A
N1642      N1670   1.323       .  A
N1642     Co2424   2.083   1_545  S
H1643      C1666   1.081       .  S
H1644      C1661   1.081       .  S
N1646     Co1660   2.088       .  S
N1647      N1659   1.323       .  A
N1647      N1663   1.320       .  A
N1647     Co1656   2.085       .  S
C1648      C1662   1.460       .  S
C1648      C1724   1.480       .  S
C1648      N1652   1.352       .  A
C1649      H1653   1.082       .  S
N1650      C1661   1.336       .  A
N1650     Co1660   2.078       .  S
C1654      C1666   1.461       .  S
C1654      C1804   1.480       .  S
C1654      N1670   1.351       .  A
N1657      C1668   1.347       .  A
C1658      C2384   1.456   1_545  S
Co1660     N2406   2.083       .  S
Co1660    Cl2431   2.449       .  S
Cl1667    Co2389   2.449   1_545  S
Cl1667    Co2424   2.450   1_545  S
C1671      C1672   1.401       .  A
C1671      C1676   1.398       .  A
C1671      H1681   1.083       .  S
C1672      C1673   1.405       .  A
C1672      C1677   1.475       .  S
C1673      C1674   1.400       .  A
C1673      F1678   1.358       .  S
C1674      C1675   1.405       .  A
C1674      H1679   1.083       .  S
C1675      C1676   1.407       .  A
C1676      F1680   1.358       .  S
C1677      C1682   1.402       .  A
C1677      C1686   1.403       .  A
C1682      C1683   1.394       .  A
C1682      F1687   1.358       .  S
C1683      C1684   1.407       .  A
C1683      H1688   1.084       .  S
C1684      C1685   1.409       .  A
C1685      C1686   1.402       .  A
C1685      F1689   1.356       .  S
C1686      H1690   1.083       .  S
C1691      C1692   1.404       .  A
C1691      C1696   1.404       .  A
C1691      H1701   1.083       .  S
C1692      C1693   1.403       .  A
C1692      C1697   1.476       .  S
C1693      C1694   1.393       .  A
C1693      F1698   1.358       .  S
C1694      C1695   1.405       .  A
C1694      H1699   1.083       .  S
C1695      C1696   1.409       .  A
C1696      F1700   1.357       .  S
C1697      C1702   1.401       .  A
C1697      C1706   1.404       .  A
C1702      C1703   1.392       .  A
C1702      F1707   1.358       .  S
C1703      C1704   1.406       .  A
C1703      H1708   1.080       .  S
C1704      C1705   1.412       .  A
C1705      C1706   1.406       .  A
C1705      F1709   1.357       .  S
C1706      H1710   1.084       .  S
C1711      C1712   1.403       .  A
C1711      C1716   1.399       .  A
C1711      H1721   1.083       .  S
C1712      C1713   1.405       .  A
C1712      C1717   1.484       .  S
C1713      C1714   1.398       .  A
C1713      F1718   1.358       .  S
C1714      C1715   1.410       .  A
C1714      H1719   1.082       .  S
C1715      C1716   1.412       .  A
C1716      F1720   1.355       .  S
C1717      C1722   1.406       .  A
C1717      C1726   1.405       .  A
C1722      C1723   1.398       .  A
C1722      F1727   1.358       .  S
C1723      C1724   1.406       .  A
C1723      H1728   1.082       .  S
C1724      C1725   1.407       .  A
C1725      C1726   1.399       .  A
C1725      F1729   1.357       .  S
C1726      H1730   1.083       .  S
C1731      C1732   1.403       .  A
C1731      C1736   1.393       .  A
C1731      H1741   1.083       .  S
C1732      C1733   1.406       .  A
C1732      C1737   1.483       .  S
C1733      C1734   1.402       .  A
C1733      F1738   1.356       .  S
C1734      C1735   1.405       .  A
C1734      H1739   1.082       .  S
C1735      C1736   1.409       .  A
C1736      F1740   1.356       .  S
C1737      C1742   1.405       .  A
C1737      C1746   1.405       .  A
C1742      C1743   1.393       .  A
C1742      F1747   1.358       .  S
C1743      C1744   1.407       .  A
C1743      H1748   1.083       .  S
C1744      C1745   1.410       .  A
C1745      C1746   1.401       .  A
C1745      F1749   1.357       .  S
C1746      H1750   1.083       .  S
C1751      C1752   1.407       .  A
C1751      C1756   1.399       .  A
C1751      H1761   1.082       .  S
C1752      C1753   1.411       .  A
C1752      C1757   1.492       .  S
C1753      C1754   1.398       .  A
C1753      F1758   1.357       .  S
C1754      C1755   1.403       .  A
C1754      H1759   1.083       .  S
C1755      C1756   1.406       .  A
C1756      F1760   1.356       .  S
C1757      C1762   1.411       .  A
C1757      C1766   1.408       .  A
C1762      C1763   1.399       .  A
C1762      F1767   1.357       .  S
C1763      C1764   1.401       .  A
C1763      H1768   1.084       .  S
C1764      C1765   1.402       .  A
C1765      C1766   1.399       .  A
C1765      F1769   1.358       .  S
C1766      H1770   1.083       .  S
C1771      C1772   1.402       .  A
C1771      C1776   1.398       .  A
C1771      H1781   1.083       .  S
C1772      C1773   1.408       .  A
C1772      C1777   1.487       .  S
C1773      C1774   1.400       .  A
C1773      F1778   1.358       .  S
C1774      C1775   1.405       .  A
C1774      H1779   1.079       .  S
C1775      C1776   1.412       .  A
C1776      F1780   1.357       .  S
C1777      C1782   1.408       .  A
C1777      C1786   1.403       .  A
C1782      C1783   1.401       .  A
C1782      F1787   1.358       .  S
C1783      C1784   1.407       .  A
C1783      H1788   1.083       .  S
C1784      C1785   1.409       .  A
C1785      C1786   1.397       .  A
C1785      F1789   1.355       .  S
C1786      H1790   1.083       .  S
C1791      C1792   1.405       .  A
C1791      C1796   1.398       .  A
C1791      H1801   1.082       .  S
C1792      C1793   1.405       .  A
C1792      C1797   1.480       .  S
C1793      C1794   1.397       .  A
C1793      F1798   1.358       .  S
C1794      C1795   1.403       .  A
C1794      H1799   1.071       .  S
C1795      C1796   1.406       .  A
C1796      F1800   1.357       .  S
C1797      C1802   1.406       .  A
C1797      C1806   1.402       .  A
C1802      C1803   1.398       .  A
C1802      F1807   1.358       .  S
C1803      C1804   1.406       .  A
C1803      H1808   1.082       .  S
C1804      C1805   1.408       .  A
C1805      C1806   1.395       .  A
C1805      F1809   1.357       .  S
C1806      H1810   1.083       .  S
C1811      C1812   1.401       .  A
C1811      C1816   1.402       .  A
C1811      H1821   1.083       .  S
C1812      C1813   1.401       .  A
C1812      C1817   1.473       .  S
C1813      C1814   1.396       .  A
C1813      F1818   1.358       .  S
C1814      C1815   1.408       .  A
C1814      H1819   1.083       .  S
C1815      C1816   1.412       .  A
C1816      F1820   1.355       .  S
C1817      C1822   1.400       .  A
C1817      C1826   1.403       .  A
C1822      C1823   1.393       .  A
C1822      F1827   1.358       .  S
C1823      C1824   1.407       .  A
C1823      H1828   1.083       .  S
C1824      C1825   1.411       .  A
C1825      C1826   1.403       .  A
C1825      F1829   1.357       .  S
C1826      H1830   1.083       .  S
C1831      C1832   1.402       .  A
C1831      C1836   1.400       .  A
C1831      H1841   1.084       .  S
C1832      C1833   1.403       .  A
C1832      C1837   1.474       .  S
C1833      C1834   1.397       .  A
C1833      F1838   1.357       .  S
C1834      C1835   1.403       .  A
C1834      H1839   1.083       .  S
C1835      C1836   1.410       .  A
C1836      F1840   1.358       .  S
C1837      C1842   1.404       .  A
C1837      C1846   1.400       .  A
C1842      C1843   1.401       .  A
C1842      F1847   1.357       .  S
C1843      C1844   1.405       .  A
C1843      H1848   1.083       .  S
C1844      C1845   1.409       .  A
C1845      C1846   1.395       .  A
C1845      F1849   1.358       .  S
C1846      H1850   1.084       .  S
C1851      C1852   1.402       .  A
C1851      C1856   1.393       .  A
C1851      H1861   1.083       .  S
C1852      C1853   1.406       .  A
C1852      C1857   1.474       .  S
C1853      C1854   1.398       .  A
C1853      F1858   1.358       .  S
C1854      C1855   1.403       .  A
C1854      H1859   1.084       .  S
C1855      C1856   1.404       .  A
C1856      F1860   1.357       .  S
C1857      C1862   1.402       .  A
C1857      C1866   1.401       .  A
C1862      C1863   1.392       .  A
C1862      F1867   1.358       .  S
C1863      C1864   1.408       .  A
C1863      H1868   1.082       .  S
C1864      C1865   1.413       .  A
C1864      C1911   1.490       .  S
C1865      C1866   1.398       .  A
C1865      F1869   1.357       .  S
C1866      H1870   1.083       .  S
C1871      C2254   1.406       .  A
C1871      C1876   1.398       .  A
C1871      H1881   1.082   1_556  S
C1872      C2253   1.406       .  A
C1872      C1873   1.410       .  A
C1872      C1877   1.485       .  S
C1873      C1874   1.395       .  A
C1873      F1878   1.358       .  S
C1874      C1875   1.401       .  A
C1874      H1879   1.083       .  S
C1875      C2258   1.403       .  A
C1875      C1915   1.474       .  S
C1876      C2257   1.405       .  A
C1876      F1880   1.356   1_556  S
C1877      C1882   1.410       .  A
C1877      C1886   1.406       .  A
C1882      C1883   1.398       .  A
C1882      F1887   1.357       .  S
C1883      C1884   1.402       .  A
C1883      H1888   1.083       .  S
C1884      C1885   1.402       .  A
C1885      C1886   1.395       .  A
C1885      F1889   1.357       .  S
C1886      H1890   1.082       .  S
C1891      C1892   1.403       .  A
C1891      C1896   1.394       .  A
C1891      H1901   1.083       .  S
C1892      C1893   1.407       .  A
C1892      C1897   1.483       .  S
C1893      C1894   1.399       .  A
C1893      F1898   1.357       .  S
C1894      C1895   1.406       .  A
C1894      H1899   1.082       .  S
C1895      C1896   1.411       .  A
C1895      C1913   1.486       .  S
C1896      F1900   1.358       .  S
C1897      C1902   1.407       .  A
C1897      C1906   1.404       .  A
C1902      C1903   1.394       .  A
C1902      F1907   1.358       .  S
C1903      C1904   1.404       .  A
C1903      H1908   1.083       .  S
C1904      C1905   1.409       .  A
C1905      C1906   1.401       .  A
C1905      F1909   1.356       .  S
C1906      H2292   1.082       .  S
H1910      C2288   1.084   1_554  S
C1911      C1912   1.408       .  A
C1911      C1916   1.404       .  A
C1912      C1913   1.404       .  A
C1912      H1917   1.082       .  S
C1913      C1914   1.404       .  A
C1914      C1915   1.400       .  A
C1914      H1918   1.083       .  S
C1915      C1916   1.400       .  A
C1916      H1919   1.082       .  S
C1920      C1921   1.404       .  A
C1920      C1925   1.405       .  A
C1920      C2177   1.478       .  S
C1921      C1922   1.405       .  A
C1921      H1926   1.083       .  S
C1922      C1923   1.406       .  A
C1922      C2206   1.493       .  S
C1923      C1924   1.404       .  A
C1923      H1927   1.083       .  S
C1924      C1925   1.404       .  A
C1924      C2226   1.486       .  S
C1925      H1928   1.084       .  S
C1929      C1930   1.407       .  A
C1929      C1934   1.401       .  A
C1929      C2157   1.489       .  S
C1930      C1931   1.407       .  A
C1930      H1935   1.083       .  S
C1931      C1932   1.404       .  A
C1931      C2137   1.484       .  S
C1932      C1933   1.405       .  A
C1932      H1936   1.083       .  S
C1933      C1934   1.404       .  A
C1933      C2126   1.486       .  S
C1934      H1937   1.083       .  S
C1938      C1939   1.406       .  A
C1938      C1943   1.411       .  A
C1938      C2097   1.493       .  S
C1939      C1940   1.401       .  A
C1939      H1944   1.082       .  S
C1940      C1941   1.402       .  A
C1940      C2077   1.484       .  S
C1941      C1942   1.404       .  A
C1941      H1945   1.083       .  S
C1942      C1943   1.407       .  A
C1942      C2066   1.493       .  S
C1943      H1946   1.082       .  S
C1947      C1984   1.465       .  S
C1947      C2166   1.488       .  S
C1947      N1965   1.353       .  A
N1948      N1965   1.326       .  A
N1948      N1970   1.319       .  A
C1949      C1987   1.459       .  S
C1949      H1994   1.081       .  S
C1949      N1974   1.335       .  A
H1950      C1991   1.081       .  S
C1951      H1980   1.082       .  S
C1951      N1975   1.342       .  A
Co1952     N2734   2.080   1_545  S
Co1952     N1960   2.088       .  S
Co1952     N1992   2.080       .  S
Co1952     N1968   2.084       .  S
N1953      C1991   1.340       .  A
N1953      N1960   1.318       .  A
N1953     Co1954   2.078       .  S
Co1954     N1974   2.071       .  S
C1955      C2050   1.461       .  S
N1956      N1963   1.320       .  A
N1956      N1986   1.324       .  A
N1956     Co1989   2.077       .  S
N1957      N2739   1.320   1_445  A
N1958      C1987   1.352       .  A
N1958      N1968   1.325       .  A
H1959      C1984   1.080       .  S
N1960      N1981   1.324       .  A
N1961      N1979   1.319       .  A
N1961      N1966   1.324       .  A
C1962      C1990   1.459       .  S
C1962      C2237   1.470       .  S
C1962      N1966   1.348       .  A
N1963      C1978   1.340       .  A
N1963     Co1985   2.086       .  S
C1964      H1998   1.082       .  S
C1964      N1992   1.340       .  A
C1967      C2040   1.463       .  S
C1967      N2752   1.350   1_545  A
N1968      N1974   1.318       .  A
N1969      C1995   1.342       .  A
N1969      N1971   1.321       .  A
N1969     Co1985   2.090       .  S
N1970      C1984   1.339       .  A
N1970     Co2716   2.084       .  S
N1971      N1999   1.325       .  A
N1971     Co1989   2.089       .  S
H1972      C1995   1.081       .  S
H1973      C1990   1.081       .  S
N1975      N2721   1.320       .  A
N1975     Co1989   2.087       .  S
N1976      N1988   1.324       .  A
N1976     Co1985   2.092       .  S
C1977      C1991   1.462       .  S
C1977      C2286   1.482       .  S
C1977      N1981   1.353       .  A
C1978      C1997   1.460       .  S
C1978      H1982   1.081       .  S
N1979      C1990   1.339       .  A
N1979     Co2753   2.077   1_545  S
C1983      C1995   1.461       .  S
C1983      C2146   1.474       .  S
C1983      N1999   1.350       .  A
Co1985    Cl2760   2.448       .  S
N1986      C1997   1.348       .  A
C1987      C2117   1.475       .  S
N1988      C2731   1.351       .  A
Co1989     N2743   2.073       .  S
Co1989    Cl2760   2.456       .  S
Cl1996    Co2749   2.447   1_545  S
Cl1996    Co2753   2.453   1_545  S
C1997      C2266   1.469       .  S
C2000      C2037   1.464       .  S
C2000      C2217   1.480       .  S
C2000      N2018   1.349       .  A
N2001      N2018   1.324       .  A
N2001      N2023   1.319       .  A
N2001     Co2038   2.078       .  S
C2002      C2804   1.455       .  S
C2002      H2047   1.082       .  S
C2002      N2027   1.339       .  A
H2003      C2044   1.081       .  S
C2004      C2008   1.468       .  S
C2004      H2033   1.081       .  S
C2004      N2028   1.344       .  A
Co2005     N2023   2.089       .  S
Co2005     N2777   2.087   1_545  S
Co2005     N2045   2.090       .  S
Co2005     N2021   2.090       .  S
N2006      C2044   1.338       .  A
N2006      N2013   1.320       .  A
Co2007     N2010   2.082       .  S
Co2007     N2027   2.077       .  S
Co2007     N2014   2.092       .  S
Co2007    Cl2813   2.450       .  S
C2008      C2197   1.486       .  S
C2008      N2046   1.350       .  A
N2009      N2039   1.325       .  A
N2009     Co2042   2.080       .  S
N2010      N2028   1.318       .  A
N2010      N2046   1.325       .  A
N2011      N2021   1.325       .  A
H2012      C2037   1.081       .  S
N2013      N2034   1.325       .  A
N2013     Co2769   2.086       .  S
N2014      N2032   1.319       .  A
N2014      N2019   1.326       .  A
C2015      C2043   1.461       .  S
C2015      C2086   1.482       .  S
C2015      N2019   1.353       .  A
N2016      C2031   1.339       .  A
N2016     Co2038   2.082       .  S
C2017      C2020   1.463       .  S
C2017      H2051   1.082       .  S
C2017      N2045   1.343       .  A
C2020      C2057   1.481       .  S
C2020      N2041   1.351       .  A
N2022      C2048   1.339       .  A
N2022      N2024   1.319       .  A
N2023      C2037   1.342       .  A
N2024      N2052   1.323       .  A
N2024     Co2806   2.083   1_545  S
H2025      C2048   1.081       .  S
H2026      C2043   1.081       .  S
N2028     Co2042   2.094       .  S
N2029      N2041   1.325       .  A
N2029      N2045   1.320       .  A
N2029     Co2038   2.090       .  S
C2030      C2044   1.460       .  S
C2030      C2106   1.478       .  S
C2030      N2034   1.351       .  A
C2031      H2035   1.082       .  S
N2032      C2043   1.337       .  A
N2032     Co2042   2.078       .  S
C2036      C2048   1.461       .  S
C2036      C2186   1.478       .  S
C2036      N2052   1.350       .  A
N2039      C2050   1.349       .  A
C2040      C2766   1.455   1_545  S
Co2042     N2788   2.089       .  S
Co2042    Cl2813   2.452       .  S
Cl2049    Co2771   2.448   1_545  S
Cl2049    Co2806   2.449   1_545  S
C2053      C2054   1.403       .  A
C2053      C2058   1.400       .  A
C2053      H2063   1.083       .  S
C2054      C2055   1.406       .  A
C2054      C2059   1.481       .  S
C2055      C2056   1.401       .  A
C2055      F2060   1.358       .  S
C2056      C2057   1.405       .  A
C2056      H2061   1.083       .  S
C2057      C2058   1.407       .  A
C2058      F2062   1.357       .  S
C2059      C2064   1.402       .  A
C2059      C2068   1.404       .  A
C2064      C2065   1.395       .  A
C2064      F2069   1.358       .  S
C2065      C2066   1.408       .  A
C2065      H2070   1.083       .  S
C2066      C2067   1.411       .  A
C2067      C2068   1.404       .  A
C2067      F2071   1.356       .  S
C2068      H2072   1.084       .  S
C2073      C2074   1.402       .  A
C2073      C2078   1.401       .  A
C2073      H2083   1.083       .  S
C2074      C2075   1.402       .  A
C2074      C2079   1.472       .  S
C2075      C2076   1.395       .  A
C2075      F2080   1.358       .  S
C2076      C2077   1.406       .  A
C2076      H2081   1.083       .  S
C2077      C2078   1.409       .  A
C2078      F2082   1.357       .  S
C2079      C2084   1.401       .  A
C2079      C2088   1.402       .  A
C2084      C2085   1.395       .  A
C2084      F2089   1.358       .  S
C2085      C2086   1.406       .  A
C2085      H2090   1.082       .  S
C2086      C2087   1.410       .  A
C2087      C2088   1.401       .  A
C2087      F2091   1.357       .  S
C2088      H2092   1.083       .  S
C2093      C2094   1.402       .  A
C2093      C2098   1.397       .  A
C2093      H2103   1.084       .  S
C2094      C2095   1.405       .  A
C2094      C2099   1.481       .  S
C2095      C2096   1.397       .  A
C2095      F2100   1.358       .  S
C2096      C2097   1.408       .  A
C2096      H2101   1.082       .  S
C2097      C2098   1.412       .  A
C2098      F2102   1.356       .  S
C2099      C2104   1.405       .  A
C2099      C2108   1.405       .  A
C2104      C2105   1.395       .  A
C2104      F2109   1.357       .  S
C2105      C2106   1.404       .  A
C2105      H2110   1.082       .  S
C2106      C2107   1.408       .  A
C2107      C2108   1.399       .  A
C2107      F2111   1.358       .  S
C2108      H2112   1.083       .  S
C2113      C2114   1.403       .  A
C2113      C2118   1.392       .  A
C2113      H2123   1.083       .  S
C2114      C2115   1.406       .  A
C2114      C2119   1.480       .  S
C2115      C2116   1.400       .  A
C2115      F2120   1.356       .  S
C2116      C2117   1.405       .  A
C2116      H2121   1.083       .  S
C2117      C2118   1.407       .  A
C2118      F2122   1.356       .  S
C2119      C2124   1.404       .  A
C2119      C2128   1.405       .  A
C2124      C2125   1.391       .  A
C2124      F2129   1.358       .  S
C2125      C2126   1.406       .  A
C2125      H2130   1.083       .  S
C2126      C2127   1.409       .  A
C2127      C2128   1.401       .  A
C2127      F2131   1.357       .  S
C2128      H2132   1.082       .  S
C2133      C2134   1.407       .  A
C2133      C2138   1.399       .  A
C2133      H2143   1.082       .  S
C2134      C2135   1.411       .  A
C2134      C2139   1.492       .  S
C2135      C2136   1.399       .  A
C2135      F2140   1.357       .  S
C2136      C2137   1.403       .  A
C2136      H2141   1.083       .  S
C2137      C2138   1.406       .  A
C2138      F2142   1.356       .  S
C2139      C2144   1.411       .  A
C2139      C2148   1.408       .  A
C2144      C2145   1.400       .  A
C2144      F2149   1.357       .  S
C2145      C2146   1.402       .  A
C2145      H2150   1.084       .  S
C2146      C2147   1.403       .  A
C2147      C2148   1.400       .  A
C2147      F2151   1.357       .  S
C2148      H2152   1.083       .  S
C2153      C2154   1.403       .  A
C2153      C2158   1.398       .  A
C2153      H2163   1.083       .  S
C2154      C2155   1.409       .  A
C2154      C2159   1.487       .  S
C2155      C2156   1.400       .  A
C2155      F2160   1.357       .  S
C2156      C2157   1.403       .  A
C2156      H2161   1.080       .  S
C2157      C2158   1.411       .  A
C2158      F2162   1.358       .  S
C2159      C2164   1.407       .  A
C2159      C2168   1.403       .  A
C2164      C2165   1.401       .  A
C2164      F2169   1.358       .  S
C2165      C2166   1.407       .  A
C2165      H2170   1.083       .  S
C2166      C2167   1.410       .  A
C2167      C2168   1.398       .  A
C2167      F2171   1.355       .  S
C2168      H2172   1.083       .  S
C2173      C2174   1.406       .  A
C2173      C2178   1.397       .  A
C2173      H2183   1.081       .  S
C2174      C2175   1.406       .  A
C2174      C2179   1.481       .  S
C2175      C2176   1.399       .  A
C2175      F2180   1.358       .  S
C2176      C2177   1.402       .  A
C2176      H2181   1.066       .  S
C2177      C2178   1.404       .  A
C2178      F2182   1.357       .  S
C2179      C2184   1.407       .  A
C2179      C2188   1.403       .  A
C2184      C2185   1.398       .  A
C2184      F2189   1.357       .  S
C2185      C2186   1.406       .  A
C2185      H2190   1.082       .  S
C2186      C2187   1.407       .  A
C2187      C2188   1.396       .  A
C2187      F2191   1.357       .  S
C2188      H2192   1.083       .  S
C2193      C2194   1.402       .  A
C2193      C2198   1.401       .  A
C2193      H2203   1.084       .  S
C2194      C2195   1.404       .  A
C2194      C2199   1.480       .  S
C2195      C2196   1.401       .  A
C2195      F2200   1.358       .  S
C2196      C2197   1.408       .  A
C2196      H2201   1.084       .  S
C2197      C2198   1.409       .  A
C2198      F2202   1.356       .  S
C2199      C2204   1.402       .  A
C2199      C2208   1.404       .  A
C2204      C2205   1.395       .  A
C2204      F2209   1.358       .  S
C2205      C2206   1.408       .  A
C2205      H2210   1.083       .  S
C2206      C2207   1.412       .  A
C2207      C2208   1.404       .  A
C2207      F2211   1.357       .  S
C2208      H2212   1.083       .  S
C2213      C2214   1.402       .  A
C2213      C2218   1.400       .  A
C2213      H2223   1.084       .  S
C2214      C2215   1.403       .  A
C2214      C2219   1.475       .  S
C2215      C2216   1.397       .  A
C2215      F2220   1.357       .  S
C2216      C2217   1.404       .  A
C2216      H2221   1.083       .  S
C2217      C2218   1.411       .  A
C2218      F2222   1.358       .  S
C2219      C2224   1.404       .  A
C2219      C2228   1.399       .  A
C2224      C2225   1.403       .  A
C2224      F2229   1.357       .  S
C2225      C2226   1.407       .  A
C2225      H2230   1.083       .  S
C2226      C2227   1.409       .  A
C2227      C2228   1.394       .  A
C2227      F2231   1.358       .  S
C2228      H2232   1.083       .  S
C2233      C2234   1.403       .  A
C2233      C2238   1.395       .  A
C2233      H2243   1.083       .  S
C2234      C2235   1.406       .  A
C2234      C2239   1.476       .  S
C2235      C2236   1.399       .  A
C2235      F2240   1.357       .  S
C2236      C2237   1.403       .  A
C2236      H2241   1.084       .  S
C2237      C2238   1.405       .  A
C2238      F2242   1.357       .  S
C2239      C2244   1.402       .  A
C2239      C2248   1.402       .  A
C2244      C2245   1.393       .  A
C2244      F2249   1.358       .  S
C2245      C2246   1.408       .  A
C2245      H2250   1.082       .  S
C2246      C2247   1.414       .  A
C2247      C2248   1.400       .  A
C2247      F2251   1.357       .  S
C2248      H2252   1.084       .  S
C2253      C2258   1.397       .  A
C2253      H2263   1.082       .  S
C2254      C2255   1.410       .  A
C2254      C2259   1.486       .  S
C2255      C2256   1.395       .  A
C2255      F2260   1.358       .  S
C2256      C2257   1.401       .  A
C2256      H2261   1.083       .  S
C2258      F2262   1.356       .  S
C2259      C2264   1.410       .  A
C2259      C2268   1.407       .  A
C2264      C2265   1.399       .  A
C2264      F2269   1.357       .  S
C2265      C2266   1.403       .  A
C2265      H2270   1.083       .  S
C2266      C2267   1.401       .  A
C2267      C2268   1.395       .  A
C2267      F2271   1.357       .  S
C2268      H2272   1.082       .  S
C2273      C2274   1.402       .  A
C2273      C2278   1.396       .  A
C2273      H2283   1.083       .  S
C2274      C2275   1.405       .  A
C2274      C2279   1.482       .  S
C2275      C2276   1.399       .  A
C2275      F2280   1.357   1_556  S
C2276      C2277   1.408       .  A
C2276      H2281   1.082   1_556  S
C2277      C2278   1.412       .  A
C2278      F2282   1.357       .  S
C2279      C2284   1.406       .  A
C2279      C2288   1.403       .  A
C2284      C2285   1.395       .  A
C2284      F2289   1.358       .  S
C2285      C2286   1.404       .  A
C2285      H2290   1.084       .  S
C2286      C2287   1.411       .  A
C2287      C2288   1.401       .  A
C2287      F2291   1.356       .  S
C2293      C2294   1.409       .  A
C2293      C2298   1.404       .  A
C2293      C3010   1.492       .  S
C2294      C2295   1.406       .  A
C2294      H2299   1.082       .  S
C2295      C2296   1.406       .  A
C2295      C3041   1.492       .  S
C2296      C2297   1.402       .  A
C2296      H2300   1.083       .  S
C2297      C2298   1.402       .  A
C2297      C3021   1.478       .  S
C2298      H2301   1.082       .  S
C2302      C2303   1.404       .  A
C2302      C2307   1.404       .  A
C2302      C2559   1.479       .  S
C2303      C2304   1.403       .  A
C2303      H2308   1.083       .  S
C2304      C2305   1.406       .  A
C2304      C2588   1.488       .  S
C2305      C2306   1.404       .  A
C2305      H2309   1.083       .  S
C2306      C2307   1.404       .  A
C2306      C2608   1.486       .  S
C2307      H2310   1.083       .  S
C2311      C2312   1.408       .  A
C2311      C2316   1.406       .  A
C2311      C2539   1.496       .  S
C2312      C2313   1.405       .  A
C2312      H2317   1.083       .  S
C2313      C2314   1.402       .  A
C2313      C2519   1.481       .  S
C2314      C2315   1.404       .  A
C2314      H2318   1.083       .  S
C2315      C2316   1.406       .  A
C2315      C2508   1.489       .  S
C2316      H2319   1.082       .  S
C2320      C2321   1.407       .  A
C2320      C2325   1.409       .  A
C2320      C2479   1.492       .  S
C2321      C2322   1.403       .  A
C2321      H2326   1.082       .  S
C2322      C2323   1.403       .  A
C2322      C2459   1.484       .  S
C2323      C2324   1.404       .  A
C2323      H2327   1.083       .  S
C2324      C2325   1.405       .  A
C2324      C2448   1.490       .  S
C2325      H2328   1.082       .  S
C2329      C2366   1.461       .  S
C2329      C2548   1.483       .  S
C2329      N2347   1.353       .  A
N2330      N2347   1.326       .  A
N2330      N2352   1.320       .  A
C2331      C2369   1.460       .  S
C2331      H2376   1.081       .  S
C2331      N2356   1.337       .  A
H2332      C2373   1.081       .  S
C2333      C2719   1.458   1_565  S
C2333      H2362   1.082       .  S
C2333      N2357   1.340       .  A
Co2334     N2342   2.087       .  S
Co2334     N2374   2.084       .  S
Co2334     N2350   2.085       .  S
N2335      C2373   1.342       .  A
N2335      N2342   1.319       .  A
N2335     Co2336   2.079       .  S
Co2336     N2356   2.076       .  S
C2337      C2715   1.460   1_554  S
C2337      C2432   1.460       .  S
N2338      N2345   1.320       .  A
N2338      N2368   1.324       .  A
N2338     Co2371   2.077       .  S
N2340      C2369   1.351       .  A
N2340      N2350   1.325       .  A
H2341      C2366   1.081   1_545  S
N2342      N2363   1.323       .  A
N2343      N2361   1.319       .  A
N2343      N2348   1.324       .  A
C2344      C2372   1.460       .  S
C2344      C2619   1.472       .  S
C2344      N2348   1.349       .  A
N2345      C2360   1.340       .  A
N2345     Co2367   2.088       .  S
C2346      H2380   1.082       .  S
C2346      N2374   1.342       .  A
C2349      C2422   1.464       .  S
N2350      N2356   1.319       .  A
N2351      C2377   1.341       .  A
N2351      N2353   1.320       .  A
N2351     Co2367   2.089       .  S
N2352      C2366   1.339       .  A
N2353      N2381   1.325       .  A
N2353     Co2371   2.085       .  S
H2354      C2377   1.081       .  S
H2355      C2372   1.081       .  S
N2357     Co2371   2.081       .  S
N2358      N2370   1.324       .  A
N2358     Co2367   2.090       .  S
C2359      C2373   1.462       .  S
C2359      C2668   1.480       .  S
C2359      N2363   1.352       .  A
C2360      C2379   1.462       .  S
C2360      H2364   1.081       .  S
N2361      C2372   1.338       .  A
C2365      C2377   1.460       .  S
C2365      C2528   1.472       .  S
C2365      N2381   1.350       .  A
N2368      C2379   1.348       .  A
C2369      C2499   1.477       .  S
C2379      C2648   1.472       .  S
C2382      C2419   1.462       .  S
C2382      C2599   1.478       .  S
C2382      N2400   1.349       .  A
N2383      N2400   1.325       .  A
N2383      N2405   1.320       .  A
N2383     Co2420   2.079       .  S
C2384      H2429   1.082       .  S
C2384      N2409   1.339       .  A
H2385      C2426   1.081       .  S
C2386      C2390   1.466       .  S
C2386      H2415   1.080       .  S
C2386      N2410   1.342       .  A
Co2387     N2405   2.090       .  S
Co2387     N2427   2.091       .  S
Co2387     N2403   2.092       .  S
N2388      C2426   1.339       .  A
N2388      N2395   1.320       .  A
Co2389     N2392   2.080       .  S
Co2389     N2409   2.079       .  S
Co2389     N2396   2.087       .  S
C2390      C2579   1.484       .  S
C2390      N2428   1.350       .  A
N2391      N2421   1.324       .  A
N2391     Co2424   2.081       .  S
N2392      N2410   1.318       .  A
N2392      N2428   1.323       .  A
N2393      N2403   1.326       .  A
H2394      C2419   1.081       .  S
N2395      N2416   1.324       .  A
N2396      N2414   1.319       .  A
N2396      N2401   1.325       .  A
C2397      C2425   1.462       .  S
C2397      C2468   1.481       .  S
C2397      N2401   1.352       .  A
N2398      C2413   1.338       .  A
N2398     Co2420   2.086       .  S
C2399      C2402   1.463       .  S
C2399      H2433   1.081       .  S
C2399      N2427   1.342       .  A
C2402      C2439   1.483       .  S
C2402      N2423   1.352       .  A
N2404      C2430   1.338       .  A
N2404      N2406   1.319       .  A
N2405      C2419   1.341       .  A
N2406      N2434   1.323       .  A
H2407      C2430   1.081       .  S
H2408      C2425   1.082       .  S
N2410     Co2424   2.086       .  S
N2411      N2423   1.326       .  A
N2411      N2427   1.320       .  A
N2411     Co2420   2.092       .  S
C2412      C2426   1.460       .  S
C2412      C2488   1.479       .  S
C2412      N2416   1.351       .  A
C2413      H2417   1.081       .  S
N2414      C2425   1.339       .  A
N2414     Co2424   2.082       .  S
C2418      C2430   1.461       .  S
C2418      C2568   1.479       .  S
C2418      N2434   1.350       .  A
N2421      C2432   1.348       .  A
C2435      C2436   1.402       .  A
C2435      C2440   1.400       .  A
C2435      H2445   1.083       .  S
C2436      C2437   1.404       .  A
C2436      C2441   1.478       .  S
C2437      C2438   1.401       .  A
C2437      F2442   1.358       .  S
C2438      C2439   1.407       .  A
C2438      H2443   1.083       .  S
C2439      C2440   1.408       .  A
C2440      F2444   1.357       .  S
C2441      C2446   1.402       .  A
C2441      C2450   1.403       .  A
C2446      C2447   1.395       .  A
C2446      F2451   1.358       .  S
C2447      C2448   1.407       .  A
C2447      H2452   1.084       .  S
C2448      C2449   1.411       .  A
C2449      C2450   1.403       .  A
C2449      F2453   1.357       .  S
C2450      H2454   1.084       .  S
C2455      C2456   1.402       .  A
C2455      C2460   1.401       .  A
C2455      H2465   1.083       .  S
C2456      C2457   1.402       .  A
C2456      C2461   1.474       .  S
C2457      C2458   1.395       .  A
C2457      F2462   1.358       .  S
C2458      C2459   1.406       .  A
C2458      H2463   1.083       .  S
C2459      C2460   1.409       .  A
C2460      F2464   1.357       .  S
C2461      C2466   1.402       .  A
C2461      C2470   1.401       .  A
C2466      C2467   1.398       .  A
C2466      F2471   1.358       .  S
C2467      C2468   1.406       .  A
C2467      H2472   1.082       .  S
C2468      C2469   1.409       .  A
C2469      C2470   1.399       .  A
C2469      F2473   1.357       .  S
C2470      H2474   1.083       .  S
C2475      C2476   1.404       .  A
C2475      C2480   1.396       .  A
C2475      H2485   1.083       .  S
C2476      C2477   1.405       .  A
C2476      C2481   1.483       .  S
C2477      C2478   1.398       .  A
C2477      F2482   1.357       .  S
C2478      C2479   1.409       .  A
C2478      H2483   1.082       .  S
C2479      C2480   1.410       .  A
C2480      F2484   1.355       .  S
C2481      C2486   1.407       .  A
C2481      C2490   1.404       .  A
C2486      C2487   1.398       .  A
C2486      F2491   1.358       .  S
C2487      C2488   1.406       .  A
C2487      H2492   1.082       .  S
C2488      C2489   1.406       .  A
C2489      C2490   1.396       .  A
C2489      F2493   1.357       .  S
C2490      H2494   1.083       .  S
C2495      C2496   1.403       .  A
C2495      C2500   1.394       .  A
C2495      H2505   1.083       .  S
C2496      C2497   1.405       .  A
C2496      C2501   1.481       .  S
C2497      C2498   1.401       .  A
C2497      F2502   1.356       .  S
C2498      C2499   1.405       .  A
C2498      H2503   1.082       .  S
C2499      C2500   1.408       .  A
C2500      F2504   1.357       .  S
C2501      C2506   1.404       .  A
C2501      C2510   1.404       .  A
C2506      C2507   1.393       .  A
C2506      F2511   1.358       .  S
C2507      C2508   1.407       .  A
C2507      H2512   1.083       .  S
C2508      C2509   1.410       .  A
C2509      C2510   1.401       .  A
C2509      F2513   1.357       .  S
C2510      H2514   1.083       .  S
C2515      C2516   1.407       .  A
C2515      C2520   1.398       .  A
C2515      H2525   1.083       .  S
C2516      C2517   1.410       .  A
C2516      C2521   1.490       .  S
C2517      C2518   1.398       .  A
C2517      F2522   1.357       .  S
C2518      C2519   1.403       .  A
C2518      H2523   1.083       .  S
C2519      C2520   1.405       .  A
C2520      F2524   1.356       .  S
C2521      C2526   1.410       .  A
C2521      C2530   1.408       .  A
C2526      C2527   1.399       .  A
C2526      F2531   1.357       .  S
C2527      C2528   1.402       .  A
C2527      H2532   1.084       .  S
C2528      C2529   1.402       .  A
C2529      C2530   1.399       .  A
C2529      F2533   1.357       .  S
C2530      H2534   1.083       .  S
C2535      C2536   1.401       .  A
C2535      C2540   1.397       .  A
C2535      H2545   1.083       .  S
C2536      C2537   1.407       .  A
C2536      C2541   1.485       .  S
C2537      C2538   1.401       .  A
C2537      F2542   1.358       .  S
C2538      C2539   1.407       .  A
C2538      H2543   1.081       .  S
C2539      C2540   1.414       .  A
C2540      F2544   1.357       .  S
C2541      C2546   1.407       .  A
C2541      C2550   1.404       .  A
C2546      C2547   1.401       .  A
C2546      F2551   1.357       .  S
C2547      C2548   1.405       .  A
C2547      H2552   1.083       .  S
C2548      C2549   1.409       .  A
C2549      C2550   1.399       .  A
C2549      F2553   1.357       .  S
C2550      H2554   1.083       .  S
C2555      C2556   1.405       .  A
C2555      C2560   1.397       .  A
C2555      H2565   1.082       .  S
C2556      C2557   1.405       .  A
C2556      C2561   1.479       .  S
C2557      C2558   1.397       .  A
C2557      F2562   1.358       .  S
C2558      C2559   1.402       .  A
C2558      H2563   1.069       .  S
C2559      C2560   1.405       .  A
C2560      F2564   1.357       .  S
C2561      C2566   1.406       .  A
C2561      C2570   1.403       .  A
C2566      C2567   1.397       .  A
C2566      F2571   1.358       .  S
C2567      C2568   1.406       .  A
C2567      H2572   1.081       .  S
C2568      C2569   1.408       .  A
C2569      C2570   1.396       .  A
C2569      F2573   1.357       .  S
C2570      H2574   1.083       .  S
C2575      C2576   1.400       .  A
C2575      C2580   1.399       .  A
C2575      H2585   1.084       .  S
C2576      C2577   1.402       .  A
C2576      C2581   1.472       .  S
C2577      C2578   1.398       .  A
C2577      F2582   1.358       .  S
C2578      C2579   1.408       .  A
C2578      H2583   1.084       .  S
C2579      C2580   1.410       .  A
C2580      F2584   1.355       .  S
C2581      C2586   1.400       .  A
C2581      C2590   1.402       .  A
C2586      C2587   1.393       .  A
C2586      F2591   1.358       .  S
C2587      C2588   1.407       .  A
C2587      H2592   1.083       .  S
C2588      C2589   1.412       .  A
C2589      C2590   1.403       .  A
C2589      F2593   1.357       .  S
C2590      H2594   1.083       .  S
C2595      C2596   1.404       .  A
C2595      C2600   1.401       .  A
C2595      H2605   1.084       .  S
C2596      C2597   1.404       .  A
C2596      C2601   1.478       .  S
C2597      C2598   1.397       .  A
C2597      F2602   1.357       .  S
C2598      C2599   1.403       .  A
C2598      H2603   1.083       .  S
C2599      C2600   1.409       .  A
C2600      F2604   1.358       .  S
C2601      C2606   1.405       .  A
C2601      C2610   1.401       .  A
C2606      C2607   1.400       .  A
C2606      F2611   1.357       .  S
C2607      C2608   1.406       .  A
C2607      H2612   1.083       .  S
C2608      C2609   1.410       .  A
C2609      C2610   1.396       .  A
C2609      F2613   1.358       .  S
C2610      H2614   1.083       .  S
C2615      C2616   1.402       .  A
C2615      C2620   1.394       .  A
C2615      H2625   1.084       .  S
C2616      C2617   1.405       .  A
C2616      C2621   1.476       .  S
C2617      C2618   1.399       .  A
C2617      F2622   1.357       .  S
C2618      C2619   1.404       .  A
C2618      H2623   1.084       .  S
C2619      C2620   1.406       .  A
C2620      F2624   1.357       .  S
C2621      C2626   1.403       .  A
C2621      C2630   1.402       .  A
C2626      C2627   1.393       .  A
C2626      F2631   1.358       .  S
C2627      C2628   1.406       .  A
C2627      H2632   1.083       .  S
C2628      C2629   1.412       .  A
C2628      C2675   1.488       .  S
C2629      C2630   1.399       .  A
C2629      F2633   1.357       .  S
C2630      H2634   1.083       .  S
C2635      C3018   1.407       .  A
C2635      C2640   1.399       .  A
C2635      H2645   1.082   1_556  S
C2636      C3017   1.408       .  A
C2636      C2637   1.410       .  A
C2636      C2641   1.489       .  S
C2637      C2638   1.393       .  A
C2637      F2642   1.358       .  S
C2638      C2639   1.400       .  A
C2638      H2643   1.083       .  S
C2639      C3022   1.405       .  A
C2639      C2679   1.476       .  S
C2640      C3021   1.405       .  A
C2640      F2644   1.356   1_556  S
C2641      C2646   1.410       .  A
C2641      C2650   1.407       .  A
C2646      C2647   1.400       .  A
C2646      F2651   1.357       .  S
C2647      C2648   1.404       .  A
C2647      H2652   1.083       .  S
C2648      C2649   1.401       .  A
C2649      C2650   1.395       .  A
C2649      F2653   1.357       .  S
C2650      H2654   1.082       .  S
C2655      C2656   1.402       .  A
C2655      C2660   1.395       .  A
C2655      H2665   1.083       .  S
C2656      C2657   1.405       .  A
C2656      C2661   1.483       .  S
C2657      C2658   1.400       .  A
C2657      F2662   1.357       .  S
C2658      C2659   1.409       .  A
C2658      H2663   1.082       .  S
C2659      C2660   1.413       .  A
C2659      C2677   1.492       .  S
C2660      F2664   1.357       .  S
C2661      C2666   1.407       .  A
C2661      C2670   1.405       .  A
C2666      C2667   1.393       .  A
C2666      F2671   1.358       .  S
C2667      C2668   1.403       .  A
C2667      H2672   1.083       .  S
C2668      C2669   1.410       .  A
C2669      C2670   1.402       .  A
C2669      F2673   1.356       .  S
C2670      H3056   1.083       .  S
H2674      C3052   1.084   1_554  S
C2675      C2676   1.407       .  A
C2675      C2680   1.401       .  A
C2676      C2677   1.407       .  A
C2676      H2681   1.082       .  S
C2677      C2678   1.407       .  A
C2678      C2679   1.401       .  A
C2678      H2682   1.083       .  S
C2679      C2680   1.401       .  A
C2680      H2683   1.083       .  S
C2684      C2685   1.403       .  A
C2684      C2689   1.404       .  A
C2684      C2941   1.478       .  S
C2685      C2686   1.405       .  A
C2685      H2690   1.084       .  S
C2686      C2687   1.406       .  A
C2686      C2970   1.489       .  S
C2687      C2688   1.406       .  A
C2687      H2691   1.083       .  S
C2688      C2689   1.404       .  A
C2688      C2990   1.487       .  S
C2689      H2692   1.083       .  S
C2693      C2694   1.409       .  A
C2693      C2698   1.403       .  A
C2693      C2921   1.493       .  S
C2694      C2695   1.406       .  A
C2694      H2699   1.083       .  S
C2695      C2696   1.403       .  A
C2695      C2901   1.481       .  S
C2696      C2697   1.403       .  A
C2696      H2700   1.083       .  S
C2697      C2698   1.403       .  A
C2697      C2890   1.484       .  S
C2698      H2701   1.082       .  S
C2702      C2703   1.405       .  A
C2702      C2707   1.409       .  A
C2702      C2861   1.490       .  S
C2703      C2704   1.404       .  A
C2703      H2708   1.082       .  S
C2704      C2705   1.406       .  A
C2704      C2841   1.491       .  S
C2705      C2706   1.406       .  A
C2705      H2709   1.083       .  S
C2706      C2707   1.406       .  A
C2706      C2830   1.492       .  S
C2707      H2710   1.082       .  S
C2711      C2748   1.462       .  S
C2711      C2930   1.481       .  S
C2711      N2729   1.352       .  A
N2712      N2729   1.325       .  A
N2712      N2734   1.320       .  A
C2713      C2751   1.458       .  S
C2713      H2758   1.081       .  S
C2713      N2738   1.336       .  A
H2714      C2755   1.081       .  S
C2715      H2744   1.082       .  S
C2715      N2739   1.341       .  A
Co2716     N2724   2.087       .  S
Co2716     N2756   2.082       .  S
Co2716     N2732   2.089       .  S
N2717      C2755   1.343       .  A
N2717      N2724   1.318       .  A
N2717     Co2718   2.085       .  S
Co2718     N2738   2.072       .  S
C2719      C2814   1.461       .  S
N2720      N2727   1.320       .  A
N2720      N2750   1.324       .  A
N2720     Co2753   2.080       .  S
N2722      C2751   1.352       .  A
N2722      N2732   1.326       .  A
H2723      C2748   1.081       .  S
N2724      N2745   1.323       .  A
N2725      N2743   1.319       .  A
N2725      N2730   1.324       .  A
C2726      C2754   1.458       .  S
C2726      C3001   1.471       .  S
C2726      N2730   1.349       .  A
N2727      C2742   1.340       .  A
N2727     Co2749   2.083       .  S
C2728      H2762   1.082       .  S
C2728      N2756   1.342       .  A
C2731      C2804   1.467       .  S
N2732      N2738   1.319       .  A
N2733      C2759   1.342       .  A
N2733      N2735   1.320       .  A
N2733     Co2749   2.090       .  S
N2734      C2748   1.339       .  A
N2735      N2763   1.325       .  A
N2735     Co2753   2.087       .  S
H2736      C2759   1.081       .  S
H2737      C2754   1.082       .  S
N2739     Co2753   2.085       .  S
N2740      N2752   1.324       .  A
N2740     Co2749   2.086       .  S
C2741      C2755   1.465       .  S
C2741      C3050   1.485       .  S
C2741      N2745   1.352       .  A
C2742      C2761   1.459       .  S
C2742      H2746   1.081       .  S
N2743      C2754   1.339       .  A
C2747      C2759   1.462       .  S
C2747      C2910   1.476       .  S
C2747      N2763   1.350       .  A
N2750      C2761   1.348       .  A
C2751      C2881   1.475       .  S
C2761      C3030   1.469       .  S
C2764      C2801   1.462       .  S
C2764      C2981   1.477       .  S
C2764      N2782   1.349       .  A
N2765      N2782   1.325       .  A
N2765      N2787   1.319       .  A
N2765     Co2802   2.076       .  S
C2766      H2811   1.081       .  S
C2766      N2791   1.338       .  A
H2767      C2808   1.081       .  S
C2768      C2772   1.468       .  S
C2768      H2797   1.080       .  S
C2768      N2792   1.343       .  A
Co2769     N2787   2.089       .  S
Co2769     N2809   2.091       .  S
Co2769     N2785   2.096       .  S
N2770      C2808   1.338       .  A
N2770      N2777   1.320       .  A
Co2771     N2774   2.082       .  S
Co2771     N2791   2.076       .  S
Co2771     N2778   2.086       .  S
C2772      C2961   1.487       .  S
C2772      N2810   1.351       .  A
N2773      N2803   1.324       .  A
N2773     Co2806   2.083       .  S
N2774      N2792   1.318       .  A
N2774      N2810   1.324       .  A
N2775      N2785   1.327       .  A
H2776      C2801   1.081       .  S
N2777      N2798   1.324       .  A
N2778      N2796   1.319       .  A
N2778      N2783   1.325       .  A
C2779      C2807   1.462       .  S
C2779      C2850   1.481       .  S
C2779      N2783   1.352       .  A
N2780      C2795   1.338       .  A
N2780     Co2802   2.085       .  S
C2781      C2784   1.462       .  S
C2781      H2815   1.081       .  S
C2781      N2809   1.342       .  A
C2784      C2821   1.483       .  S
C2784      N2805   1.353       .  A
N2786      C2812   1.339       .  A
N2786      N2788   1.319       .  A
N2787      C2801   1.341       .  A
N2788      N2816   1.325       .  A
H2789      C2812   1.081       .  S
H2790      C2807   1.081       .  S
N2792     Co2806   2.090       .  S
N2793      N2805   1.326       .  A
N2793      N2809   1.321       .  A
N2793     Co2802   2.095       .  S
C2794      C2808   1.459       .  S
C2794      C2870   1.477       .  S
C2794      N2798   1.351       .  A
C2795      H2799   1.081       .  S
N2796      C2807   1.339       .  A
N2796     Co2806   2.082       .  S
C2800      C2812   1.461       .  S
C2800      C2950   1.481       .  S
C2800      N2816   1.352       .  A
N2803      C2814   1.349   1_565  A
C2817      C2818   1.403       .  A
C2817      C2822   1.401       .  A
C2817      H2827   1.083       .  S
C2818      C2819   1.405       .  A
C2818      C2823   1.481       .  S
C2819      C2820   1.401       .  A
C2819      F2824   1.358       .  S
C2820      C2821   1.406       .  A
C2820      H2825   1.083       .  S
C2821      C2822   1.407       .  A
C2822      F2826   1.357       .  S
C2823      C2828   1.403       .  A
C2823      C2832   1.404       .  A
C2828      C2829   1.396       .  A
C2828      F2833   1.358       .  S
C2829      C2830   1.407       .  A
C2829      H2834   1.084       .  S
C2830      C2831   1.411       .  A
C2831      C2832   1.404       .  A
C2831      F2835   1.356       .  S
C2832      H2836   1.084       .  S
C2837      C2838   1.401       .  A
C2837      C2842   1.400       .  A
C2837      H2847   1.083       .  S
C2838      C2839   1.402       .  A
C2838      C2843   1.475       .  S
C2839      C2840   1.396       .  A
C2839      F2844   1.358       .  S
C2840      C2841   1.408       .  A
C2840      H2845   1.082       .  S
C2841      C2842   1.412       .  A
C2842      F2846   1.357       .  S
C2843      C2848   1.403       .  A
C2843      C2852   1.402       .  A
C2848      C2849   1.397       .  A
C2848      F2853   1.358       .  S
C2849      C2850   1.405       .  A
C2849      H2854   1.082       .  S
C2850      C2851   1.410       .  A
C2851      C2852   1.400       .  A
C2851      F2855   1.357       .  S
C2852      H2856   1.083       .  S
C2857      C2858   1.402       .  A
C2857      C2862   1.397       .  A
C2857      H2867   1.084       .  S
C2858      C2859   1.404       .  A
C2858      C2863   1.479       .  S
C2859      C2860   1.397       .  A
C2859      F2864   1.358       .  S
C2860      C2861   1.407       .  A
C2860      H2865   1.082       .  S
C2861      C2862   1.411       .  A
C2862      F2866   1.356       .  S
C2863      C2868   1.405       .  A
C2863      C2872   1.404       .  A
C2868      C2869   1.396       .  A
C2868      F2873   1.358       .  S
C2869      C2870   1.405       .  A
C2869      H2874   1.082       .  S
C2870      C2871   1.407       .  A
C2871      C2872   1.399       .  A
C2871      F2875   1.358       .  S
C2872      H2876   1.083       .  S
C2877      C2878   1.403       .  A
C2877      C2882   1.393       .  A
C2877      H2887   1.083       .  S
C2878      C2879   1.406       .  A
C2878      C2883   1.480       .  S
C2879      C2880   1.402       .  A
C2879      F2884   1.357       .  S
C2880      C2881   1.405       .  A
C2880      H2885   1.082       .  S
C2881      C2882   1.407       .  A
C2882      F2886   1.357       .  S
C2883      C2888   1.404       .  A
C2883      C2892   1.405       .  A
C2888      C2889   1.392       .  A
C2888      F2893   1.358       .  S
C2889      C2890   1.405       .  A
C2889      H2894   1.083       .  S
C2890      C2891   1.408       .  A
C2891      C2892   1.402       .  A
C2891      F2895   1.357       .  S
C2892      H2896   1.083       .  S
C2897      C2898   1.407       .  A
C2897      C2902   1.399       .  A
C2897      H2907   1.083       .  S
C2898      C2899   1.411       .  A
C2898      C2903   1.492       .  S
C2899      C2900   1.400       .  A
C2899      F2904   1.358       .  S
C2900      C2901   1.403       .  A
C2900      H2905   1.083       .  S
C2901      C2902   1.404       .  A
C2902      F2906   1.355       .  S
C2903      C2908   1.411       .  A
C2903      C2912   1.408       .  A
C2908      C2909   1.400       .  A
C2908      F2913   1.357       .  S
C2909      C2910   1.403       .  A
C2909      H2914   1.084       .  S
C2910      C2911   1.403       .  A
C2911      C2912   1.399       .  A
C2911      F2915   1.357       .  S
C2912      H2916   1.083       .  S
C2917      C2918   1.401       .  A
C2917      C2922   1.397       .  A
C2917      H2927   1.083       .  S
C2918      C2919   1.407       .  A
C2918      C2923   1.483       .  S
C2919      C2920   1.400       .  A
C2919      F2924   1.357       .  S
C2920      C2921   1.406       .  A
C2920      H2925   1.081       .  S
C2921      C2922   1.414       .  A
C2922      F2926   1.357       .  S
C2923      C2928   1.407       .  A
C2923      C2932   1.403       .  A
C2928      C2929   1.400       .  A
C2928      F2933   1.358       .  S
C2929      C2930   1.406       .  A
C2929      H2934   1.083       .  S
C2930      C2931   1.408       .  A
C2931      C2932   1.397       .  A
C2931      F2935   1.356       .  S
C2932      H2936   1.083       .  S
C2937      C2938   1.406       .  A
C2937      C2942   1.397       .  A
C2937      H2947   1.080       .  S
C2938      C2939   1.408       .  A
C2938      C2943   1.484       .  S
C2939      C2940   1.401       .  A
C2939      F2944   1.358       .  S
C2940      C2941   1.402       .  A
C2940      H2945   1.065       .  S
C2941      C2942   1.403       .  A
C2942      F2946   1.357       .  S
C2943      C2948   1.407       .  A
C2943      C2952   1.405       .  A
C2948      C2949   1.398       .  A
C2948      F2953   1.357       .  S
C2949      C2950   1.406       .  A
C2949      H2954   1.082       .  S
C2950      C2951   1.407       .  A
C2951      C2952   1.397       .  A
C2951      F2955   1.357       .  S
C2952      H2956   1.083       .  S
C2957      C2958   1.401       .  A
C2957      C2962   1.401       .  A
C2957      H2967   1.084       .  S
C2958      C2959   1.402       .  A
C2958      C2963   1.475       .  S
C2959      C2960   1.399       .  A
C2959      F2964   1.358       .  S
C2960      C2961   1.408       .  A
C2960      H2965   1.084       .  S
C2961      C2962   1.411       .  A
C2962      F2966   1.355       .  S
C2963      C2968   1.401       .  A
C2963      C2972   1.402       .  A
C2968      C2969   1.396       .  A
C2968      F2973   1.358       .  S
C2969      C2970   1.407       .  A
C2969      H2974   1.083       .  S
C2970      C2971   1.411       .  A
C2971      C2972   1.403       .  A
C2971      F2975   1.357       .  S
C2972      H2976   1.083       .  S
C2977      C2978   1.403       .  A
C2977      C2982   1.400       .  A
C2977      H2987   1.084       .  S
C2978      C2979   1.404       .  A
C2978      C2983   1.477       .  S
C2979      C2980   1.397       .  A
C2979      F2984   1.357       .  S
C2980      C2981   1.403       .  A
C2980      H2985   1.084       .  S
C2981      C2982   1.409       .  A
C2982      F2986   1.358       .  S
C2983      C2988   1.404       .  A
C2983      C2992   1.401       .  A
C2988      C2989   1.401       .  A
C2988      F2993   1.357       .  S
C2989      C2990   1.407       .  A
C2989      H2994   1.083       .  S
C2990      C2991   1.410       .  A
C2991      C2992   1.396       .  A
C2991      F2995   1.358       .  S
C2992      H2996   1.084       .  S
C2997      C2998   1.403       .  A
C2997      C3002   1.396       .  A
C2997      H3007   1.084       .  S
C2998      C2999   1.405       .  A
C2998      C3003   1.476       .  S
C2999      C3000   1.398       .  A
C2999      F3004   1.357       .  S
C3000      C3001   1.403       .  A
C3000      H3005   1.083       .  S
C3001      C3002   1.406       .  A
C3002      F3006   1.357       .  S
C3003      C3008   1.401       .  A
C3003      C3012   1.402       .  A
C3008      C3009   1.393       .  A
C3008      F3013   1.358       .  S
C3009      C3010   1.408       .  A
C3009      H3014   1.082       .  S
C3010      C3011   1.413       .  A
C3011      C3012   1.400       .  A
C3011      F3015   1.357       .  S
C3012      H3016   1.084       .  S
C3017      C3022   1.401       .  A
C3017      H3027   1.082       .  S
C3018      C3019   1.409       .  A
C3018      C3023   1.486       .  S
C3019      C3020   1.394       .  A
C3019      F3024   1.358       .  S
C3020      C3021   1.402       .  A
C3020      H3025   1.083       .  S
C3022      F3026   1.357       .  S
C3023      C3028   1.409       .  A
C3023      C3032   1.407       .  A
C3028      C3029   1.399       .  A
C3028      F3033   1.357       .  S
C3029      C3030   1.403       .  A
C3029      H3034   1.083       .  S
C3030      C3031   1.401       .  A
C3031      C3032   1.396       .  A
C3031      F3035   1.357       .  S
C3032      H3036   1.083       .  S
C3037      C3038   1.404       .  A
C3037      C3042   1.396       .  A
C3037      H3047   1.083       .  S
C3038      C3039   1.408       .  A
C3038      C3043   1.488       .  S
C3039      C3040   1.401       .  A
C3039      F3044   1.357   1_556  S
C3040      C3041   1.407       .  A
C3040      H3045   1.082   1_556  S
C3041      C3042   1.412       .  A
C3042      F3046   1.358       .  S
C3043      C3048   1.408       .  A
C3043      C3052   1.406       .  A
C3048      C3049   1.396       .  A
C3048      F3053   1.358       .  S
C3049      C3050   1.404       .  A
C3049      H3054   1.084       .  S
C3050      C3051   1.410       .  A
C3051      C3052   1.403       .  A
C3051      F3055   1.356       .  S
