geometry optimzed in LAMMPS
_audit_creation_date              2020-12-01 
_audit_creation_method            'lammps2cif' 
_symmetry_space_group_name_H-M    'P1' 
_symmetry_Int_Tables_number       1 
_symmetry_cell_setting            triclinic 
loop_ 
_symmetry_equiv_pos_as_xyz 
  x,y,z 
_cell_length_a                    34.02905961 
_cell_length_b                    34.88234247992682 
_cell_length_c                    43.16167810676389 
_cell_angle_alpha                 90.10667677983324 
_cell_angle_beta                  89.55475502146369 
_cell_angle_gamma                 122.03601437660663 
loop_ 
_atom_site_label 
_atom_site_type_symbol 
_atom_site_fract_x 
_atom_site_fract_y 
_atom_site_fract_z 
_atom_site_charge 
Zr1        Zr  0.80233423  0.19524865  0.09806474     2.17500
O2          O  0.78408948  0.23972811  0.06421481    -0.50000
O3          O  0.74523301  0.14407260  0.05994358    -0.73300
O4          O  0.86488810  0.24074438  0.06121361    -0.80000
O5          O  0.72820732  0.19734206  0.16425807    -0.81800
O6          O  0.92362162  0.22836141  0.06729816    -0.77400
O7          O  0.76678415  0.23378624  0.11996088    -0.89000
O8          O  0.72811621  0.07287052  0.06953368    -0.75000
O9          O  0.82724648  0.14436181  0.08838394    -0.84500
O10         O  0.74584166  0.12671816  0.12362215    -0.84200
O11         O  0.87850183  0.23093684  0.12067234    -0.70900
O12         O  0.80555787  0.21098046  0.15222842    -0.83100
Zr13       Zr  0.84953547  0.12656962  0.19152220     2.26400
Zr14       Zr  0.90212191  0.17823391  0.11197670     2.06300
Zr15       Zr  0.74951376  0.14317954  0.17783624     2.10000
Zr16       Zr  0.77166274  0.07628525  0.11440481     1.78800
O17         O  0.73199624  0.16993402  0.22500384    -0.91900
O18         O  0.80095279  0.05028804  0.07292583    -0.39700
O19         O  0.77355211  0.09097605  0.16899014    -0.76300
O20         O  0.84617807  0.10849512  0.13709325    -0.95000
O21         O  0.90536906  0.19500751  0.16621684    -0.88300
O22         O  0.82460883  0.17748116  0.20100341    -0.91200
C23         C  0.72365086  0.10153967  0.05413581     1.02600
C24         C  0.74077571  0.22790091  0.14335113     1.15500
C25         C  0.90493190  0.24784123  0.05428315     1.06300
O26         O  0.91758078  0.14203044  0.06935885    -0.93300
O27         O  0.93992807  0.14044009  0.13033923    -0.89100
O28         O  0.90694966  0.10884133  0.17708296    -0.82200
C29         C  0.93432276  0.11627043  0.15422943     1.12900
O30         O  0.89407652  0.31926746  0.15974815    -0.95300
Zr31       Zr  0.87987698  0.24565041  0.17489624     1.88900
O32         O  0.89981285  0.17744568  0.23288853    -0.71900
O33         O  0.98316961  0.23736302  0.11937660    -0.51200
O34         O  0.96199151  0.29861780  0.16426657    -0.95900
O35         O  0.85066330  0.27853582  0.21123963    -0.53100
O36         O  0.91784646  0.24877943  0.22225895    -0.72400
C37         C  0.92032974  0.21996748  0.23889138     0.99900
O38         O  0.85770615  0.06988138  0.21883637    -0.61300
O39         O  0.66706438  0.09186462  0.16813714    -0.56100
O40         O  0.78743236  0.08072637  0.22886652    -0.92800
O41         O  0.72648734  0.08878199  0.21986653    -0.91200
O42         O  0.69175705  0.01586029  0.12458656    -0.91500
O43         O  0.76278317  0.00414554  0.12727758    -0.90300
C44         C  0.74632701  0.07179023  0.23459955     1.18700
H45         H  0.71489505  0.11520183  0.11604126     0.34700
H46         H  0.85334921  0.08552909  0.13362199     0.45500
H47         H  0.82286035  0.18210468  0.22294221     0.39100
H48         H  0.90006077  0.26027260  0.11186736     0.35500
H49         H  0.77294664  0.02387609  0.06393866     0.27300
H50         H  0.00076687  0.22819598  0.10622862     0.33300
H51         H  0.97760750  0.28306474  0.17138947     0.39200
H52         H  0.68140746  0.99801098  0.10521067     0.33600
H53         H  0.66154267  0.06128171  0.17138126     0.32500
H54         H  0.69806044  0.15654307  0.22461577     0.34200
H55         H  0.84852205  0.26414102  0.23144623     0.33200
H56         H  0.77522943  0.00834282  0.14851125     0.37200
H57         H  0.85713416  0.07578339  0.24124008     0.29900
H58         H  0.78620178  0.23072562  0.04279204     0.34100
H59         H  0.91685920  0.34101024  0.17481113     0.37000
H60         H  0.65125624  0.09629054  0.18586379     0.29600
H61         H  0.82880650  0.04038524  0.21500573     0.42500
H62         H  0.90007661  0.14337630  0.05162051     0.32500
H63         H  0.81217526  0.07379974  0.05660853     0.40100
H64         H  0.81802273  0.26574152  0.20513383     0.32000
H65         H  0.98723562  0.26457670  0.10905420     0.32000
H66         H  0.81048961  0.27140523  0.06597493     0.32300
C67         C  0.03533471  0.36210582  0.33571591     0.81500
N68         N  0.07629108  0.36506992  0.34087244    -0.76800
C69         C  0.08428840  0.33388324  0.32848437     0.84000
N70         N  0.05117886  0.29973222  0.31092234    -0.76700
C71         C  0.01012248  0.29645239  0.30591824     0.84000
N72         N  0.00235090  0.32775223  0.31826046    -0.78500
C73         C  0.62035649  0.95129622  0.34514556     0.81500
N74         N  0.64498930  0.98356818  0.32326696    -0.76800
C75         C  0.67170882  0.97805909  0.30234250     0.84000
N76         N  0.67381911  0.94027537  0.30341097    -0.76700
C77         C  0.64933830  0.90800613  0.32522278     0.84000
N78         N  0.62269382  0.91360170  0.34611632    -0.78500
C79         C  0.98125910  0.36190278  0.00327078     0.81500
N80         N  0.97050982  0.39380692  0.00820507    -0.76800
C81         C  0.99599251  0.43506571  0.99442432     0.84000
N82         N  0.03235563  0.44429579  0.97558063    -0.76700
C83         C  0.04329051  0.41239639  0.97089574     0.84000
N84         N  0.01756034  0.37130246  0.98467734    -0.78500
C85         C  0.61927551  0.03008751  0.99371481     0.81500
N86         N  0.61953695  0.99729667  0.97692804    -0.76800
C87         C  0.58062812  0.96515657  0.96227585     0.84000
N88         N  0.54097610  0.96584566  0.96455243    -0.76700
C89         C  0.54067123  0.99875769  0.98154049     0.84000
N90         N  0.57977889  0.03052968  0.99614632    -0.78500
Zr91       Zr  0.53109322  0.47523234  0.53715804     2.17500
O92         O  0.58161352  0.45534057  0.56290143    -0.50000
O93         O  0.47818933  0.41586111  0.57404246    -0.73300
O94         O  0.58190571  0.53016262  0.57636459    -0.80000
O95         O  0.51975909  0.40286205  0.46609176    -0.81800
O96         O  0.57475021  0.59139271  0.57517419    -0.77400
O97         O  0.55818702  0.43154620  0.51145497    -0.89000
O98         O  0.40581962  0.40285632  0.56842032    -0.75000
O99         O  0.48171858  0.50069565  0.55348711    -0.84500
O100        O  0.45905455  0.42621323  0.51188498    -0.84200
O101        O  0.56923132  0.55228356  0.51880908    -0.70900
O102        O  0.54616989  0.48427267  0.48225677    -0.83100
Zr103      Zr  0.46169491  0.53891367  0.45561348     2.26400
Zr104      Zr  0.51856520  0.57721321  0.53475780     2.06300
Zr105      Zr  0.47383484  0.43632218  0.45710394     2.10000
Zr106      Zr  0.41009942  0.45226156  0.52769020     1.78800
O107        O  0.50245423  0.42908116  0.40691736    -0.91900
O108        O  0.38279040  0.47425219  0.57263687    -0.39700
O109        O  0.42427881  0.46186694  0.47302181    -0.76300
O110        O  0.44462456  0.52859773  0.51063869    -0.95000
O111        O  0.53422650  0.58703165  0.48011528    -0.88300
O112        O  0.51037185  0.51282615  0.43868420    -0.91200
C113        C  0.43478389  0.39509852  0.58102689     1.02600
C114        C  0.54873156  0.40764361  0.48689174     1.15500
C115        C  0.59296765  0.56975655  0.58546963     1.06300
O116        O  0.48861518  0.58689201  0.58360281    -0.93300
O117        O  0.48042406  0.61842229  0.52378601    -0.89100
O118        O  0.44348649  0.59197381  0.47771216    -0.82200
C119        C  0.45399737  0.61664706  0.50199751     1.12900
O120        O  0.65244903  0.55819499  0.47138325    -0.95300
Zr121      Zr  0.58255515  0.56023587  0.46410604     1.88900
O122        O  0.51520232  0.59748839  0.41887304    -0.71900
O123        O  0.57793574  0.65728021  0.53037716    -0.51200
O124        O  0.64905280  0.63282360  0.48006746    -0.95900
O125        O  0.60698669  0.54079774  0.41640196    -0.53100
O126        O  0.58862319  0.61495020  0.42734553    -0.72400
C127        C  0.55908820  0.62087589  0.41371432     0.99900
O128        O  0.41297829  0.55175455  0.42137668    -0.61300
O129        O  0.41747101  0.35500836  0.45899825    -0.56100
O130        O  0.40384753  0.48041979  0.42119546    -0.92800
O131        O  0.41325737  0.42053183  0.42004594    -0.91200
O132        O  0.34626447  0.37695710  0.51396595    -0.91500
O133        O  0.33667457  0.44579772  0.51685332    -0.90300
C134        C  0.39295723  0.44105519  0.41162704     1.18700
H135        H  0.44630011  0.39502641  0.51756111     0.34700
H136        H  0.42198523  0.53566941  0.51700254     0.45500
H137        H  0.51354721  0.51438602  0.41642748     0.39100
H138        H  0.59997876  0.57088892  0.52712082     0.35500
H139        H  0.35570173  0.44561506  0.58044468     0.27300
H140        H  0.57249274  0.67138057  0.54848851     0.33300
H141        H  0.63733457  0.65339693  0.48123343     0.39200
H142        H  0.35687363  0.36924646  0.49486907     0.33600
H143        H  0.42538144  0.34264589  0.44101111     0.32500
H144        H  0.48362378  0.39637412  0.40214733     0.34200
H145        H  0.59442761  0.54993696  0.39929209     0.33200
H146        H  0.34318787  0.46542325  0.49854439     0.37200
H147        H  0.38599152  0.54592971  0.43410365     0.29900
H148        H  0.57461429  0.45389012  0.58533404     0.34100
H149        H  0.67552167  0.58024237  0.45636933     0.37000
H150        H  0.42583580  0.34364707  0.47719564     0.29600
H151        H  0.43046854  0.58470912  0.41724642     0.42500
H152        H  0.45462848  0.57052848  0.58075517     0.32500
H153        H  0.40683942  0.48282291  0.58856505     0.40100
H154        H  0.58876653  0.50733585  0.41590272     0.32000
H155        H  0.60746427  0.65933751  0.53492610     0.32000
H156        H  0.61362325  0.48178781  0.56039987     0.32300
Zr157      Zr  0.59773830  0.79765430  0.86566640     2.17500
O158        O  0.52265780  0.74436010  0.88942278    -0.50000
O159        O  0.58948742  0.84751707  0.90204293    -0.73300
O160        O  0.60087516  0.74861810  0.90545472    -0.80000
O161        O  0.53772749  0.81601321  0.79603062    -0.81800
O162        O  0.67263605  0.75856700  0.90460220    -0.77400
O163        O  0.52530825  0.77781306  0.84139677    -0.89000
O164        O  0.65071371  0.91922128  0.89505341    -0.75000
O165        O  0.67560129  0.84708788  0.88214568    -0.84500
O166        O  0.62345738  0.86760833  0.84000201    -0.84200
O167        O  0.63856295  0.76258726  0.84747783    -0.70900
O168        O  0.59203610  0.78324677  0.81076931    -0.83100
Zr169      Zr  0.73957309  0.86990438  0.78382407     2.26400
Zr170      Zr  0.71731765  0.81329946  0.86336873     2.06300
Zr171      Zr  0.61995075  0.85417712  0.78542086     2.10000
Zr172      Zr  0.70097881  0.91689816  0.85619020     1.78800
O173        O  0.58168544  0.81868927  0.73689400    -0.91900
O174        O  0.75089916  0.94193919  0.90148447    -0.39700
O175        O  0.69804581  0.90417911  0.80145208    -0.76300
O176        O  0.74441502  0.88525576  0.83892924    -0.95000
O177        O  0.71295281  0.79915782  0.80862225    -0.88300
O178        O  0.66189219  0.82098844  0.76707790    -0.91200
C179        C  0.61194399  0.89021856  0.90765819     1.02600
C180        C  0.51154689  0.78909894  0.81750893     1.15500
C181        C  0.63087146  0.73964345  0.91510684     1.06300
O182        O  0.75854273  0.84153983  0.91207111    -0.93300
O183        O  0.80085669  0.85408143  0.85341551    -0.89100
O184        O  0.81290666  0.88904022  0.80666703    -0.82200
C185        C  0.82712498  0.88031413  0.83150574     1.12900
O186        O  0.56330057  0.67837185  0.80318690    -0.95300
Zr187      Zr  0.63457710  0.75068585  0.79279275     1.88900
O188        O  0.74432427  0.81900711  0.74629046    -0.71900
O189        O  0.73712941  0.75600466  0.85789671    -0.51200
O190        O  0.65002435  0.69230184  0.80699445    -0.95900
O191        O  0.58248664  0.72340546  0.74856827    -0.53100
O192        O  0.68067570  0.74822929  0.75122277    -0.72400
C193        C  0.71954893  0.77697518  0.73875515     0.99900
O194        O  0.80648458  0.92257042  0.75199348    -0.61300
O195        O  0.59726671  0.90974761  0.78362895    -0.56100
O196        O  0.73890131  0.92452928  0.74823749    -0.92800
O197        O  0.66699848  0.91413912  0.74866190    -0.91200
O198        O  0.68907743  0.97727520  0.84115974    -0.91500
O199        O  0.77204209  0.98991334  0.84738187    -0.90300
C200        C  0.70924972  0.93438609  0.73938205     1.18700
H201        H  0.60407946  0.87929878  0.84510490     0.34700
H202        H  0.77521055  0.90807950  0.84538448     0.45500
H203        H  0.66059591  0.81811334  0.74483201     0.39100
H204        H  0.62571354  0.73270468  0.85602488     0.35500
H205        H  0.75266156  0.96993976  0.90826360     0.27300
H206        H  0.75230568  0.75713626  0.87764999     0.33300
H207        H  0.64765893  0.67630088  0.78746196     0.39200
H208        H  0.69500308  0.99545861  0.86016654     0.33600
H209        H  0.57478976  0.89965403  0.76645690     0.32500
H210        H  0.59812844  0.84233953  0.72085275     0.34200
H211        H  0.60129800  0.74210563  0.73072428     0.33200
H212        H  0.77885646  0.99005939  0.82502079     0.37200
H213        H  0.82715226  0.94820347  0.76569935     0.29900
H214        H  0.52688576  0.74917701  0.91207302     0.34100
H215        H  0.56265746  0.65705667  0.78770708     0.37000
H216        H  0.57848489  0.90463427  0.80256743     0.29600
H217        H  0.82345179  0.90722632  0.74765076     0.42500
H218        H  0.77478715  0.87485645  0.91031450     0.32500
H219        H  0.73231403  0.91957001  0.91785992     0.40100
H220        H  0.56044042  0.73316404  0.75275793     0.32000
H221        H  0.70702434  0.72682890  0.85865081     0.32000
H222        H  0.51725593  0.71388728  0.88579467     0.32300
C223        C  0.74457226  0.70585057  0.67564502     0.81500
N224        N  0.70654582  0.67692830  0.65885895    -0.76800
C225        C  0.70655042  0.64539748  0.64036926     0.84000
N226        N  0.74512016  0.64281893  0.63864725    -0.76700
C227        C  0.78344042  0.67169962  0.65548203     0.84000
N228        N  0.78291318  0.70304328  0.67404891    -0.78500
C229        C  0.71206750  0.07552238  0.65154378     0.81500
N230        N  0.70585303  0.03922903  0.66762578    -0.76800
C231        C  0.74050938  0.04312660  0.68550626     0.84000
N232        N  0.78146190  0.08350704  0.68725406    -0.76700
C233        C  0.78760445  0.11973248  0.67106481     0.84000
N234        N  0.75298349  0.11558125  0.65318013    -0.78500
C235        C  0.59766996  0.63751713  0.97761241     0.81500
N236        N  0.63236799  0.64443453  0.99681266    -0.76800
C237        C  0.62638381  0.61119964  0.01637910     0.84000
N238        N  0.58535999  0.57079801  0.01679858    -0.76700
C239        C  0.55032211  0.56330964  0.99774876     0.84000
N240        N  0.55656661  0.59677952  0.97806884    -0.78500
Zr241      Zr  0.06193091  0.53273871  0.44111808     2.17500
O242        O  0.13233340  0.55532529  0.41139765    -0.50000
O243        O  0.07348491  0.59346628  0.40605057    -0.73300
O244        O  0.04577361  0.47953259  0.39871627    -0.80000
O245        O  0.13400241  0.58135159  0.51572856    -0.81800
O246        O  0.96831077  0.42734630  0.39759872    -0.77400
O247        O  0.13605627  0.56008048  0.46606780    -0.89000
O248        O  0.02083770  0.61249057  0.41776071    -0.75000
O249        O  0.98787206  0.52000402  0.42927136    -0.84500
O250        O  0.05384213  0.58419480  0.47334788    -0.84200
O251        O  0.00887323  0.45439746  0.45456694    -0.70900
O252        O  0.06452681  0.51381981  0.49403723    -0.83100
Zr253      Zr  0.92769713  0.47222621  0.52802171     2.26400
Zr254      Zr  0.93464520  0.44244481  0.44273274     2.06300
Zr255      Zr  0.05608182  0.56450569  0.52638571     2.10000
Zr256      Zr  0.97872185  0.56962352  0.46252450     1.78800
O257        O  0.08745582  0.56149505  0.57628668    -0.91900
O258        O  0.92016751  0.55945519  0.42558620    -0.39700
O259        O  0.98115368  0.55027872  0.51510176    -0.76300
O260        O  0.92417882  0.49272502  0.47498719    -0.95000
O261        O  0.93689281  0.42194800  0.49567599    -0.88300
O262        O  0.00261392  0.48706453  0.54000621    -0.91200
C263        C  0.05390493  0.61590742  0.40143691     1.02600
C264        C  0.15441766  0.57588453  0.49254512     1.15500
C265        C  0.00995741  0.44424803  0.38746946     1.06300
O266        O  0.89621335  0.44987270  0.39777782    -0.93300
O267        O  0.85401588  0.41001939  0.45505316    -0.89100
O268        O  0.85075942  0.42881991  0.50525852    -0.82200
C269        C  0.83244401  0.41110796  0.47908015     1.12900
O270        O  0.06474268  0.41540286  0.48763790    -0.95300
Zr271      Zr  0.01192286  0.43696629  0.50749213     1.88900
O272        O  0.92348364  0.41818765  0.56734973    -0.71900
O273        O  0.89515710  0.36065456  0.43774873    -0.51200
O274        O  0.96949795  0.35791367  0.49155945    -0.95900
O275        O  0.07412041  0.45320115  0.54310717    -0.53100
O276        O  0.97267731  0.39566621  0.55344164    -0.72400
C277        C  0.94289559  0.39534794  0.57168012     0.99900
O278        O  0.85932484  0.45182534  0.55948643    -0.61300
O279        O  0.10361009  0.64680105  0.52651220    -0.56100
O280        O  0.94116953  0.53273380  0.56388382    -0.92800
O281        O  0.01861963  0.58448116  0.56670747    -0.91200
O282        O  0.01986067  0.64801101  0.47971466    -0.91500
O283        O  0.92330833  0.58811665  0.48193262    -0.90300
C284        C  0.97631212  0.56869812  0.57512888     1.18700
H285        H  0.07782076  0.61517383  0.46891437     0.34700
H286        H  0.89558568  0.49104617  0.47066642     0.45500
H287        H  0.00612789  0.48311138  0.56175082     0.39100
H288        H  0.01487345  0.43365532  0.44395952     0.35500
H289        H  0.93026941  0.59038783  0.41855589     0.27300
H290        H  0.88267332  0.35419884  0.41644362     0.33300
H291        H  0.93839107  0.34436117  0.50120853     0.39200
H292        H  0.01169912  0.64638114  0.50194478     0.33600
H293        H  0.08122407  0.65661127  0.52831828     0.32500
H294        H  0.10411325  0.54579449  0.57221048     0.34200
H295        H  0.06354800  0.45742192  0.56354649     0.33200
H296        H  0.91067296  0.57014287  0.50120892     0.37200
H297        H  0.86957627  0.45567323  0.58129472     0.29900
H298        H  0.12574097  0.56016330  0.38994488     0.34100
H299        H  0.05955423  0.39001801  0.50097105     0.37000
H300        H  0.11945042  0.65452056  0.54677130     0.29600
H301        H  0.85289167  0.47602690  0.55591071     0.42500
H302        H  0.87816152  0.46253851  0.40593431     0.32500
H303        H  0.92527171  0.54537784  0.40732518     0.40100
H304        H  0.10000322  0.48380866  0.53721218     0.32000
H305        H  0.92033416  0.35439957  0.43723035     0.32000
H306        H  0.13427858  0.52801351  0.41016370     0.32300
Zr307      Zr  0.77454390  0.59511845  0.13192127     2.17500
O308        O  0.71085092  0.52405487  0.11125065    -0.50000
O309        O  0.82367413  0.58512558  0.09452615    -0.73300
O310        O  0.73146018  0.60494355  0.09009830    -0.80000
O311        O  0.78661943  0.53243771  0.20159427    -0.81800
O312        O  0.74599914  0.67656921  0.09162491    -0.77400
O313        O  0.75074886  0.52266660  0.15526144    -0.89000
O314        O  0.89851179  0.64238787  0.10090599    -0.75000
O315        O  0.82965406  0.67030577  0.11570942    -0.84500
O316        O  0.84459140  0.61531842  0.15787290    -0.84200
O317        O  0.74275701  0.63876813  0.14963872    -0.70900
O318        O  0.75912450  0.58977988  0.18690320    -0.83100
Zr319      Zr  0.85446838  0.73148815  0.21365593     2.26400
Zr320      Zr  0.79938512  0.71475387  0.13406545     2.06300
Zr321      Zr  0.83024283  0.61218988  0.21257452     2.10000
Zr322      Zr  0.89948154  0.69025585  0.14174074     1.78800
O323        O  0.79425014  0.57830385  0.26228349    -0.91900
O324        O  0.93334029  0.74042756  0.09709130    -0.39700
O325        O  0.88556188  0.68733847  0.19631824    -0.76300
O326        O  0.87136026  0.73661419  0.15869179    -0.95000
O327        O  0.78368108  0.71042491  0.18859097    -0.88300
O328        O  0.79979298  0.65636964  0.23059048    -0.91200
C329        C  0.86727400  0.60586661  0.08796942     1.02600
C330        C  0.75994102  0.50807075  0.17967776     1.15500
C331        C  0.72581060  0.63656197  0.08029306     1.06300
O332        O  0.83415246  0.75550190  0.08590095    -0.93300
O333        O  0.84335760  0.79538231  0.14436662    -0.89100
O334        O  0.87652262  0.80442413  0.19161418    -0.82200
C335        C  0.86923509  0.81964828  0.16674486     1.12900
O336        O  0.65484521  0.56560807  0.19460765    -0.95300
Zr337      Zr  0.72944058  0.63465778  0.20438060     1.88900
O338        O  0.80521461  0.73908433  0.25217150    -0.71900
O339        O  0.74335782  0.73775132  0.13825262    -0.51200
O340        O  0.67057633  0.65062915  0.18952663    -0.95900
O341        O  0.69781678  0.58692368  0.25038485    -0.53100
O342        O  0.73006174  0.68486608  0.24299089    -0.72400
C343        C  0.76139344  0.71979378  0.25725653     0.99900
O344        O  0.91186323  0.79463648  0.24496916    -0.61300
O345        O  0.88169448  0.58335260  0.21498522    -0.56100
O346        O  0.90988436  0.72751041  0.24732096    -0.92800
O347        O  0.89246211  0.65495207  0.24913886    -0.91200
O348        O  0.95252809  0.66634639  0.15558302    -0.91500
O349        O  0.97533696  0.75634843  0.15338622    -0.90300
C350        C  0.91679517  0.69670782  0.25691677     1.18700
H351        H  0.85466128  0.59492224  0.15255234     0.34700
H352        H  0.89587271  0.76650654  0.15254071     0.45500
H353        H  0.79619388  0.65495000  0.25282062     0.39100
H354        H  0.71300878  0.62834315  0.14039565     0.35500
H355        H  0.96042877  0.73857497  0.09107512     0.27300
H356        H  0.74250422  0.74873195  0.11728435     0.33300
H357        H  0.65252041  0.64639706  0.20870452     0.39200
H358        H  0.96039113  0.67538366  0.17751161     0.33600
H359        H  0.86885655  0.56054973  0.23182725     0.32500
H360        H  0.81223889  0.56559430  0.27020866     0.34200
H361        H  0.71406303  0.60702229  0.26816928     0.33200
H362        H  0.97022731  0.76923699  0.17233873     0.37200
H363        H  0.93742509  0.81484195  0.23059003     0.29900
H364        H  0.71641680  0.52510590  0.08862694     0.34100
H365        H  0.63278613  0.56555911  0.20973573     0.37000
H366        H  0.87607035  0.56556711  0.19582394     0.29600
H367        H  0.89733751  0.81179773  0.25093705     0.42500
H368        H  0.84112696  0.73559046  0.07386290     0.32500
H369        H  0.91087495  0.72478611  0.08016973     0.40100
H370        H  0.70978346  0.56655427  0.24929452     0.32000
H371        H  0.71301439  0.70909776  0.14063943     0.32000
H372        H  0.68269102  0.52549485  0.11365790     0.32300
C373        C  0.69074612  0.75340911  0.31575615     0.81500
N374        N  0.68849026  0.79104920  0.31304414    -0.76800
C375        C  0.65655889  0.79471180  0.32979487     0.84000
N376        N  0.62678431  0.76061300  0.34910032    -0.76700
C377        C  0.62878731  0.72289563  0.35163617     0.84000
N378        N  0.66077712  0.71943245  0.33499685    -0.78500
C379        C  0.07357744  0.70749247  0.33685349     0.81500
N380        N  0.11184329  0.74975639  0.33500810    -0.76800
C381        C  0.11106467  0.78222126  0.31824744     0.84000
N382        N  0.07162920  0.77255512  0.30359392    -0.76700
C383        C  0.03308029  0.73030663  0.30558950     0.84000
N384        N  0.03407182  0.69787355  0.32232776    -0.78500
Zr385      Zr  0.53396665  0.06756855  0.55021753     2.17500
O386        O  0.56336354  0.13683799  0.58028521    -0.50000
O387        O  0.59468384  0.07348691  0.58383859    -0.73300
O388        O  0.48221838  0.05807763  0.59313029    -0.80000
O389        O  0.59068313  0.13414391  0.47441180    -0.81800
O390        O  0.42081337  0.98545451  0.59422181    -0.77400
O391        O  0.56845426  0.13959627  0.52336073    -0.89000
O392        O  0.60555202  0.01602766  0.57302428    -0.75000
O393        O  0.50934991  0.99171504  0.56254771    -0.84500
O394        O  0.58173784  0.05120949  0.51901778    -0.84200
O395        O  0.45294580  0.02488653  0.53675239    -0.70900
O396        O  0.51765412  0.07226366  0.49717081    -0.83100
Zr397      Zr  0.45812338  0.93571166  0.46516201     2.26400
Zr398      Zr  0.42889258  0.94850567  0.54890052     2.06300
Zr399      Zr  0.56444188  0.05566088  0.46582614     2.10000
Zr400      Zr  0.55578997  0.97472849  0.53048195     1.78800
O401        O  0.57360338  0.09483069  0.41712449    -0.91900
O402        O  0.53897595  0.91797216  0.56986370    -0.39700
O403        O  0.53916272  0.97920117  0.47744728    -0.76300
O404        O  0.47575806  0.92970906  0.51841001    -0.95000
O405        O  0.41171692  0.95404202  0.49579582    -0.88300
O406        O  0.48411116  0.01186270  0.45198427    -0.91200
C407        C  0.61399707  0.05083448  0.58838993     1.02600
C408        C  0.58623055  0.15591005  0.49667297     1.15500
C409        C  0.44377401  0.02606028  0.60457665     1.06300
O410        O  0.42139775  0.90734925  0.59630841    -0.93300
O411        O  0.38710500  0.86830355  0.53831546    -0.89100
O412        O  0.40566339  0.86181278  0.48850575    -0.82200
C413        C  0.38561269  0.84532153  0.51469561     1.12900
O414        O  0.42961450  0.09268650  0.49923825    -0.95300
Zr415      Zr  0.43848078  0.03050659  0.48338983     1.88900
O416        O  0.40339532  0.93508381  0.42780410    -0.71900
O417        O  0.34732590  0.92433394  0.54878633    -0.51200
O418        O  0.35951983  0.99988610  0.50203437    -0.95900
O419        O  0.46180622  0.09222149  0.44666236    -0.53100
O420        O  0.39211191  0.99217434  0.43912089    -0.72400
C421        C  0.38512137  0.95867948  0.42280291     0.99900
O422        O  0.43282356  0.86463434  0.43849451    -0.61300
O423        O  0.64744532  0.08538880  0.46718697    -0.56100
O424        O  0.51291603  0.94337830  0.42457846    -0.92800
O425        O  0.57419197  0.01608046  0.42307119    -0.91200
O426        O  0.63264719  0.00109300  0.50927070    -0.91500
O427        O  0.56202113  0.91197503  0.51243746    -0.90300
C428        C  0.55167809  0.97526063  0.41317741     1.18700
H429        H  0.61424043  0.07155104  0.52340134     0.34700
H430        H  0.46947179  0.90004669  0.52339388     0.45500
H431        H  0.48089470  0.01547916  0.43011986     0.39100
H432        H  0.43485366  0.03475225  0.54745896     0.35500
H433        H  0.56963873  0.92595938  0.57779763     0.27300
H434        H  0.33352883  0.90298698  0.56642731     0.33300
H435        H  0.34250331  0.00135214  0.48403770     0.39200
H436        H  0.65093974  0.00135173  0.52708224     0.33600
H437        H  0.65692098  0.08770238  0.44518588     0.32500
H438        H  0.60753894  0.11397176  0.41373932     0.34200
H439        H  0.44296382  0.07807906  0.42792449     0.33200
H440        H  0.53985049  0.89880609  0.49508387     0.37200
H441        H  0.43161921  0.87077669  0.41624827     0.29900
H442        H  0.56610624  0.12884632  0.60182562     0.34100
H443        H  0.40189795  0.08786720  0.48824872     0.37000
H444        H  0.66180175  0.11714737  0.47403232     0.29600
H445        H  0.45882165  0.85967790  0.44021964     0.42500
H446        H  0.43731174  0.89106108  0.59170726     0.32500
H447        H  0.52464104  0.92512220  0.58715589     0.40100
H448        H  0.49374229  0.10169465  0.44031041     0.32000
H449        H  0.34686097  0.95123714  0.55552092     0.32000
H450        H  0.53784479  0.14262785  0.58109129     0.32300
Zr451      Zr  0.13227375  0.27632468  0.77877046     2.17500
O452        O  0.08134219  0.20898845  0.74827003    -0.50000
O453        O  0.18374589  0.26650629  0.74315010    -0.73300
O454        O  0.09308096  0.29262249  0.73748928    -0.80000
O455        O  0.11373566  0.20495251  0.85251668    -0.81800
O456        O  0.12047836  0.36798411  0.73667868    -0.77400
O457        O  0.08739323  0.20216537  0.80363477    -0.89000
O458        O  0.25875163  0.31439484  0.75680048    -0.75000
O459        O  0.19640489  0.34961822  0.76649604    -0.84500
O460        O  0.19461747  0.28612784  0.81021431    -0.84200
O461        O  0.10680874  0.32655152  0.79367049    -0.70900
O462        O  0.10954513  0.27163878  0.83229405    -0.83100
Zr463      Zr  0.21279915  0.40815680  0.86450700     2.26400
Zr464      Zr  0.17167303  0.40006182  0.78105288     2.06300
Zr465      Zr  0.17239080  0.28311983  0.86368173     2.10000
Zr466      Zr  0.25836588  0.35980930  0.79836489     1.78800
O467        O  0.12896898  0.25083279  0.91169682    -0.91900
O468        O  0.30582021  0.41171129  0.75699758    -0.39700
O469        O  0.23693412  0.35680358  0.85146930    -0.76300
O470        O  0.23660346  0.41243350  0.81111190    -0.95000
O471        O  0.14910328  0.39648733  0.83425376    -0.88300
O472        O  0.14940981  0.33482419  0.87814979    -0.91200
C473        C  0.22763540  0.28340642  0.73979376     1.02600
C474        C  0.08710360  0.18399315  0.82956686     1.15500
C475        C  0.09410203  0.32754393  0.72658091     1.06300
O476        O  0.21420293  0.44000947  0.73432678    -0.93300
O477        O  0.22217334  0.47933096  0.79257942    -0.89100
O478        O  0.24653108  0.48341664  0.84221779    -0.82200
C479        C  0.24559167  0.50109064  0.81640753     1.12900
O480        O  0.00847362  0.26621405  0.82950506    -0.95300
Zr481      Zr  0.08626686  0.32264328  0.84703295     1.88900
O482        O  0.16375121  0.41811694  0.90167423    -0.71900
O483        O  0.12444488  0.43346345  0.78237224    -0.51200
O484        O  0.04270482  0.35608920  0.83014386    -0.95900
O485        O  0.04160120  0.26605852  0.88684679    -0.53100
O486        O  0.08836921  0.36866411  0.88935560    -0.72400
C487        C  0.11996278  0.40064373  0.90563512     0.99900
O488        O  0.27098019  0.47553357  0.89226828    -0.61300
O489        O  0.21186785  0.24208034  0.86844772    -0.56100
O490        O  0.25497626  0.39331181  0.90364443    -0.92800
O491        O  0.22987989  0.31852365  0.90471126    -0.91200
O492        O  0.29986158  0.32695168  0.82014217    -0.91500
O493        O  0.33650984  0.41915502  0.81285013    -0.90300
C494        C  0.25563496  0.35936315  0.91443143     1.18700
H495        H  0.20166298  0.26325227  0.80579994     0.34700
H496        H  0.26433474  0.44104068  0.80625344     0.45500
H497        H  0.14245689  0.33262801  0.90007359     0.39100
H498        H  0.07875130  0.32014166  0.78361627     0.35500
H499        H  0.32526712  0.40033834  0.74927777     0.27300
H500        H  0.13458076  0.45355712  0.76400478     0.33300
H501        H  0.02313995  0.35332755  0.84814500     0.39200
H502        H  0.29380090  0.32527203  0.84272829     0.33600
H503        H  0.19760407  0.22256229  0.88692014     0.32500
H504        H  0.13463669  0.22665825  0.91726031     0.34200
H505        H  0.05868432  0.27911789  0.90635650     0.33200
H506        H  0.33214626  0.43339104  0.83133970     0.37200
H507        H  0.26275615  0.46926152  0.91452740     0.29900
H508        H  0.09221264  0.21718864  0.72655553     0.34100
H509        H  0.98692102  0.26741078  0.84444745     0.37000
H510        H  0.20087393  0.22074487  0.85081896     0.29600
H511        H  0.30056353  0.47667296  0.88989098     0.42500
H512        H  0.19820307  0.45494131  0.72668199     0.32500
H513        H  0.28386976  0.40546856  0.73997816     0.40100
H514        H  0.04609876  0.24082935  0.88216020     0.32000
H515        H  0.09273641  0.40832806  0.77731373     0.32000
H516        H  0.05061162  0.20575015  0.74876241     0.32300
C517        C  0.30043319  0.25738087  0.67740968     0.81500
N518        N  0.33027801  0.29255844  0.65882587    -0.76800
C519        C  0.36309395  0.29066720  0.64188615     0.84000
N520        N  0.36605443  0.25329603  0.64359609    -0.76700
C521        C  0.33638047  0.21803370  0.66227354     0.84000
N522        N  0.30377168  0.22030461  0.67919489    -0.78500
C523        C  0.98340220  0.29975362  0.67360979     0.81500
N524        N  0.94588316  0.25768562  0.67886656    -0.76800
C525        C  0.90462210  0.24474440  0.66564342     0.84000
N526        N  0.90074023  0.27384806  0.64701999    -0.76700
C527        C  0.93787869  0.31606975  0.64173113     0.84000
N528        N  0.97943401  0.32901955  0.65493991    -0.78500
Zr529      Zr  0.26062452  0.13921791  0.21753173     2.17500
O530        O  0.18802045  0.09291986  0.24606439    -0.50000
O531        O  0.25322037  0.19136915  0.25223176    -0.73300
O532        O  0.27106895  0.09729890  0.25909965    -0.80000
O533        O  0.19251250  0.12052519  0.14130321    -0.81800
O534        O  0.34670984  0.11816896  0.25975514    -0.77400
O535        O  0.18732869  0.09406522  0.19037744    -0.89000
O536        O  0.31153854  0.26352006  0.24204039    -0.75000
O537        O  0.33761291  0.19693550  0.23013744    -0.84500
O538        O  0.27677040  0.20357939  0.18710961    -0.84200
O539        O  0.30639493  0.10780473  0.20238706    -0.70900
O540        O  0.25736366  0.12070352  0.16401515    -0.83100
Zr541      Zr  0.39536096  0.20920920  0.13042718     2.26400
Zr542      Zr  0.38347101  0.16673523  0.21471315     2.06300
Zr543      Zr  0.27192336  0.18316035  0.13333704     2.10000
Zr544      Zr  0.35482090  0.26045573  0.19875181     1.78800
O545        O  0.23832661  0.15297002  0.08279863    -0.91900
O546        O  0.41234186  0.30251653  0.23864860    -0.39700
O547        O  0.34990413  0.24059246  0.14518732    -0.76300
O548        O  0.40267143  0.23222628  0.18425024    -0.95000
O549        O  0.37787795  0.14510896  0.16119762    -0.88300
O550        O  0.31784268  0.15269392  0.11776456    -0.91200
C551        C  0.27560052  0.23426829  0.25718635     1.02600
C552        C  0.17046717  0.09278335  0.16362322     1.15500
C553        C  0.30486238  0.09498266  0.26994792     1.06300
O554        O  0.42648303  0.21335944  0.25896071    -0.93300
O555        O  0.46379209  0.20512391  0.20062449    -0.89100
O556        O  0.47098233  0.23435866  0.15216767    -0.82200
C557        C  0.48732029  0.22864613  0.17722267     1.12900
O558        O  0.23393617  0.01794772  0.16795027    -0.95300
Zr559      Zr  0.30042136  0.08861742  0.14866663     1.88900
O560        O  0.39683176  0.15702107  0.09204062    -0.71900
O561        O  0.41215016  0.11626379  0.22027907    -0.51200
O562        O  0.32611495  0.03801682  0.16345352    -0.95900
O563        O  0.24102756  0.04926048  0.10939037    -0.53100
O564        O  0.34327117  0.08460658  0.10567626    -0.72400
C565        C  0.37587655  0.11386443  0.08825358     0.99300
O566        O  0.46519605  0.25723149  0.09954627    -0.61300
O567        O  0.23115946  0.22322785  0.13614307    -0.56100
O568        O  0.38717748  0.25875016  0.09365766    -0.92800
O569        O  0.31245436  0.24080827  0.09336469    -0.91200
O570        O  0.32486989  0.30611684  0.18053546    -0.91500
O571        O  0.41817587  0.33530639  0.18292709    -0.90300
C572        C  0.35465299  0.26389251  0.08368455     1.18700
H573        H  0.25558738  0.21320166  0.19208065     0.34700
H574        H  0.43345824  0.25715106  0.18888882     0.45500
H575        H  0.31433321  0.14596354  0.09585116     0.39100
H576        H  0.29735607  0.07971712  0.21264876     0.35500
H577        H  0.40540105  0.32510814  0.24628576     0.27300
H578        H  0.42326461  0.12038194  0.24188607     0.33300
H579        H  0.31350825  0.01418236  0.14737825     0.39200
H580        H  0.33558297  0.33071030  0.19593605     0.33600
H581        H  0.22118644  0.22314997  0.11464541     0.32500
H582        H  0.21719018  0.16386186  0.07904435     0.34200
H583        H  0.25691224  0.06219432  0.08934424     0.33200
H584        H  0.43879145  0.32960065  0.17009007     0.37200
H585        H  0.45557588  0.25024632  0.07762607     0.29900
H586        H  0.19513375  0.10317770  0.26783367     0.34100
H587        H  0.23133479  0.99393713  0.15423591     0.37000
H588        H  0.20200639  0.20257305  0.14753449     0.29600
H589        H  0.47293584  0.28863129  0.10265745     0.42500
H590        H  0.40252551  0.21013437  0.27376571     0.32500
H591        H  0.40333121  0.28091492  0.25605310     0.40100
H592        H  0.22009042  0.06069014  0.11211604     0.32000
H593        H  0.38408736  0.08540582  0.21983436     0.32000
H594        H  0.18244982  0.06201066  0.24631333     0.32300
C595        C  0.24749094  0.30407952  0.31972566     0.81500
N596        N  0.28391778  0.33368669  0.33747759    -0.76800
C597        C  0.28140439  0.36445850  0.35531242     0.84000
N598        N  0.24205612  0.36575948  0.35523081    -0.76700
C599        C  0.20542910  0.33619954  0.33735429     0.84000
N600        N  0.20836538  0.30551436  0.31961840    -0.78500
C601        C  0.27603259  0.98562719  0.32179786     0.81500
N602        N  0.30702529  0.98574584  0.34159121    -0.76800
C603        C  0.29835973  0.94632130  0.35435700     0.84000
N604        N  0.25871998  0.90693996  0.34740355    -0.76700
C605        C  0.22783882  0.90658846  0.32755713     0.84000
N606        N  0.23644237  0.94592149  0.31475250    -0.78500
C607        C  0.38225401  0.36418823  0.02094006     0.81500
N608        N  0.42246820  0.40563675  0.02076134    -0.76800
C609        C  0.42853176  0.43811403  0.00022108     0.84000
N610        N  0.39423267  0.42880799  0.97986741    -0.76700
C611        C  0.35409291  0.38754925  0.97997438     0.84000
N612        N  0.34826855  0.35542404  0.00051247    -0.78500
Zr613      Zr  0.17646538  0.79351170  0.89091244     2.17500
O614        O  0.21774612  0.77199130  0.92589103    -0.50000
O615        O  0.11664530  0.73557161  0.92524061    -0.73300
O616        O  0.22311958  0.85084381  0.93053345    -0.80000
O617        O  0.17999917  0.72357325  0.82251378    -0.81800
O618        O  0.21416029  0.91059346  0.92548177    -0.77400
O619        O  0.20865550  0.75090296  0.87056884    -0.89000
O620        O  0.04647591  0.72392450  0.91248503    -0.75000
O621        O  0.12590160  0.82012582  0.89957414    -0.84500
O622        O  0.10849820  0.74471936  0.86120141    -0.84200
O623        O  0.21911818  0.86996311  0.87122912    -0.70900
O624        O  0.19914406  0.80029550  0.83741924    -0.83100
Zr625      Zr  0.12357376  0.85599047  0.79706826     2.26400
Zr626      Zr  0.16732426  0.89574299  0.87963241     2.06300
Zr627      Zr  0.13168789  0.75233979  0.80783963     2.10000
Zr628      Zr  0.05883615  0.77271170  0.86916623     1.78800
O629        O  0.16398156  0.73955866  0.76122245    -0.91900
O630        O  0.02536546  0.79579918  0.90964473    -0.39700
O631        O  0.08114894  0.77946805  0.81575424    -0.76300
O632        O  0.09800494  0.84869306  0.85036395    -0.95000
O633        O  0.19157195  0.90339113  0.82646877    -0.88300
O634        O  0.17312015  0.82815471  0.78795066    -0.91200
C635        C  0.07251901  0.71582244  0.92871124     1.02600
C636        C  0.20533856  0.72882575  0.84594778     1.15500
C637        C  0.23175278  0.89016874  0.93847381     1.06300
O638        O  0.12139088  0.89732760  0.92257631    -0.93300
O639        O  0.14126172  0.94314354  0.86001372    -0.89100
O640        O  0.11112784  0.91587830  0.81229554    -0.82200
C641        C  0.12056822  0.94263047  0.83526916     1.12900
O642        O  0.30554672  0.87329099  0.83968007    -0.95300
Zr643      Zr  0.24073124  0.87518981  0.81787821     1.88900
O644        O  0.18265044  0.91064851  0.76094961    -0.71900
O645        O  0.22734247  0.97584036  0.88276062    -0.51200
O646        O  0.30525362  0.95120076  0.82937780    -0.95900
O647        O  0.27291337  0.84808619  0.77920692    -0.53100
O648        O  0.25333351  0.92498862  0.77523779    -0.72400
C649        C  0.22696204  0.93171448  0.75824454     0.99900
O650        O  0.07165317  0.86360291  0.76245609    -0.61300
O651        O  0.07491588  0.67165640  0.81377757    -0.56100
O652        O  0.07578962  0.79961445  0.75780051    -0.92800
O653        O  0.08125987  0.73781886  0.76386808    -0.91200
O654        O  0.99688054  0.69700602  0.85446053    -0.91500
O655        O  0.99044753  0.77120773  0.85098375    -0.90300
C656        C  0.06571687  0.75972229  0.75020423     1.18700
H657        H  0.09403440  0.71349543  0.86750463     0.34700
H658        H  0.07614261  0.85808318  0.85310249     0.45500
H659        H  0.18019338  0.82884315  0.76618584     0.39100
H660        H  0.24835670  0.88872514  0.88147691     0.35500
H661        H  0.99604784  0.76770312  0.91555386     0.27300
H662        H  0.22105618  0.98627334  0.90247476     0.33300
H663        H  0.30292975  0.95509677  0.85189684     0.39200
H664        H  0.99919109  0.69637213  0.83160643     0.33600
H665        H  0.04738317  0.66615425  0.80221586     0.32500
H666        H  0.14459622  0.70654660  0.75763676     0.34200
H667        H  0.26575467  0.85615032  0.75895201     0.33200
H668        H  0.99662841  0.77892913  0.82868402     0.37200
H669        H  0.04581668  0.85960578  0.77569184     0.29900
H670        H  0.20724269  0.77338122  0.94709638     0.34100
H671        H  0.33238227  0.89262196  0.82594298     0.37000
H672        H  0.08749347  0.65665155  0.80130171     0.29600
H673        H  0.08859188  0.89569637  0.75584736     0.42500
H674        H  0.09215142  0.89090490  0.91301946     0.32500
H675        H  0.04570802  0.80269185  0.92777150     0.40100
H676        H  0.25281237  0.81471064  0.78029758     0.32000
H677        H  0.25662389  0.97692371  0.88632808     0.32000
H678        H  0.25077925  0.79681277  0.92491226     0.32300
C679        C  0.94958137  0.64129279  0.63783314     0.81500
N680        N  0.91013421  0.64220345  0.63562333    -0.76800
C681        C  0.90200590  0.66736685  0.65582635     0.84000
N682        N  0.93356233  0.69167010  0.67819762    -0.76700
C683        C  0.97299413  0.69092983  0.68050205     0.84000
N684        N  0.98083224  0.66564240  0.66033840    -0.78500
C685        C  0.37025259  0.05704535  0.66233194     0.81500
N686        N  0.33814738  0.02486929  0.68160313    -0.76800
C687        C  0.30716405  0.03150910  0.69664883     0.84000
N688        N  0.30827129  0.07071212  0.69241213    -0.76700
C689        C  0.34033044  0.10315812  0.67296798     0.84000
N690        N  0.37121779  0.09614316  0.65781977    -0.78500
C691        C  0.99640689  0.61098951  0.98835240     0.81500
N692        N  0.99949881  0.57384941  0.98719111    -0.76800
C693        C  0.97154470  0.53732121  0.00523769     0.84000
N694        N  0.94007833  0.53799374  0.02469419    -0.76700
C695        C  0.93662043  0.57523026  0.02567921     0.84000
N696        N  0.96495558  0.61158983  0.00753044    -0.78500
C697        C  0.34481790  0.97426069  0.99039242     0.81500
N698        N  0.38345680  0.97328192  0.98417004    -0.76800
C699        C  0.42482946  0.00464879  0.99663792     0.84000
N700        N  0.42758715  0.03734068  0.01550724    -0.76700
C701        C  0.38906338  0.03875977  0.02169289     0.84000
N702        N  0.34770058  0.00707345  0.00912638    -0.78500
C703        C  0.97776565  0.02971059  0.15290634     0.81500
N704        N  0.94477731  0.98512426  0.15520684    -0.76800
C705        C  0.95752765  0.95431231  0.15617724     0.84000
N706        N  0.00317971  0.96815770  0.15529643    -0.76700
C707        C  0.03562085  0.01296794  0.15283320     0.84000
N708        N  0.02282046  0.04341522  0.15180385    -0.78500
C709        C  0.62370315  0.34918541  0.47739197     0.81500
N710        N  0.60220231  0.30365887  0.48006951    -0.76800
C711        C  0.62776248  0.28440206  0.47910259     0.84000
N712        N  0.67406411  0.31005847  0.47596141    -0.76700
C713        C  0.69544297  0.35520711  0.47355724     0.84000
N714        N  0.67058947  0.37531327  0.47455537    -0.78500
C715        C  0.36764990  0.66235518  0.51081101     0.81500
N716        N  0.37845345  0.70526320  0.51613709    -0.76800
C717        C  0.34427627  0.71429549  0.51709353     0.84000
N718        N  0.29995989  0.68102785  0.51230126    -0.76700
C719        C  0.28909210  0.63840517  0.50694643     0.84000
N720        N  0.32281182  0.62874200  0.50601036    -0.78500
C721        C  0.04311376  0.99666861  0.83634195     0.81500
N722        N  0.99810972  0.96247335  0.83735575    -0.76800
C723        C  0.96419890  0.97169501  0.83835800     0.84000
N724        N  0.97533605  0.01538738  0.83805002    -0.76700
C725        C  0.02067437  0.04951485  0.83710953     0.84000
N726        N  0.05440921  0.04004942  0.83620294    -0.78500
C727        C  0.31205661  0.63605732  0.81687477     0.81500
N728        N  0.35754338  0.66771860  0.81256702    -0.76800
C729        C  0.37285458  0.71202995  0.81688897     0.84000
N730        N  0.34289726  0.72447805  0.82585539    -0.76700
C731        C  0.29749983  0.69230868  0.83022426     0.84000
N732        N  0.28221839  0.64834334  0.82574027    -0.78500
C733        C  0.69544752  0.37243173  0.18190784     0.81500
N734        N  0.71827412  0.35261084  0.17173377    -0.76800
C735        C  0.69431584  0.30739120  0.16701072     0.84000
N736        N  0.64824766  0.28233334  0.17206831    -0.76700
C737        C  0.62573679  0.30218341  0.18205011     0.84000
N738        N  0.64900181  0.34737521  0.18669291    -0.78500
C739        C  0.24959553  0.96640017  0.73498527    -0.12000
C740        C  0.27378033  0.99677796  0.71717092    -0.13500
C741        C  0.03380700  0.73724832  0.72495195    -0.12000
C742        C  0.00628001  0.71661632  0.70448451    -0.13500
C743        C  0.30138263  0.94139488  0.97609079    -0.12000
C744        C  0.26736942  0.91557527  0.96115356    -0.13500
C745        C  0.04963144  0.68081527  0.95172825    -0.12000
C746        C  0.02626690  0.64950435  0.96909076    -0.13500
C747        C  0.26487077  0.70415562  0.83843007    -0.12000
C748        C  0.23593622  0.71306701  0.84313664    -0.13500
C749        C  0.10230986  0.97091793  0.83438656    -0.12000
C750        C  0.07835881  0.98651707  0.83492825    -0.13500
C751        C  0.08376090  0.03032375  0.15453809    -0.12000
C752        C  0.12433915  0.05668112  0.15802345    -0.13500
C753        C  0.38823731  0.09549819  0.06252494    -0.12000
C754        C  0.39119839  0.07207509  0.04294980    -0.13500
C755        C  0.37506410  0.32928262  0.04274762    -0.12000
C756        C  0.36657928  0.29921448  0.06096733    -0.13500
C757        C  0.29428730  0.06023541  0.29252689    -0.12000
C758        C  0.28582041  0.02719286  0.30734383    -0.13500
C759        C  0.25971842  0.25199540  0.28112610    -0.12000
C760        C  0.25182633  0.27341824  0.29951471    -0.13500
C761        C  0.53589669  0.25316130  0.18033735    -0.12000
C762        C  0.57690460  0.27611520  0.18294852    -0.13500
C763        C  0.33977985  0.17847836  0.66476418    -0.12000
C764        C  0.34089876  0.14452858  0.66807647    -0.13500
C765        C  0.03426640  0.09588677  0.83551466    -0.12000
C766        C  0.05521531  0.13637475  0.83301814    -0.13500
C767        C  0.02678835  0.31280304  0.68843075    -0.12000
C768        C  0.05982342  0.32029052  0.70381243    -0.13500
C769        C  0.26764287  0.26088670  0.69691835    -0.12000
C770        C  0.24478027  0.26763867  0.71527269    -0.13500
C771        C  0.28885896  0.36837278  0.93844813    -0.12000
C772        C  0.31825182  0.37726717  0.95770242    -0.13500
C773        C  0.27374667  0.54887358  0.81390201    -0.12000
C774        C  0.29485147  0.58929885  0.81368851    -0.13500
C775        C  0.59796603  0.20040809  0.49035856    -0.12000
C776        C  0.60772613  0.23785337  0.48461392    -0.13500
C777        C  0.40070761  0.04788808  0.64511914    -0.12000
C778        C  0.42253132  0.03778882  0.62854027    -0.13500
C779        C  0.35512458  0.94842917  0.39675013    -0.12000
C780        C  0.32980468  0.94633651  0.37647154    -0.13500
C781        C  0.36498544  0.79798395  0.51867325    -0.12000
C782        C  0.35486847  0.75946305  0.51973781    -0.13500
C783        C  0.15113144  0.82744651  0.31806536    -0.12000
C784        C  0.18571613  0.86445574  0.32092107    -0.13500
C785        C  0.92285199  0.90738695  0.15946325    -0.12000
C786        C  0.89560618  0.86753067  0.16270163    -0.13500
C787        C  0.88366050  0.58719327  0.06494087    -0.12000
C788        C  0.90495177  0.57797265  0.04687172    -0.13500
C789        C  0.74482398  0.73828519  0.28011789    -0.12000
C790        C  0.72292142  0.74798296  0.29712452    -0.13500
C791        C  0.95633599  0.71017841  0.27626352    -0.12000
C792        C  0.99107894  0.71996775  0.29026757    -0.13500
C793        C  0.73824465  0.46054294  0.18278196    -0.12000
C794        C  0.71923016  0.42025816  0.18383751    -0.13500
C795        C  0.20115413  0.58811218  0.49660782    -0.12000
C796        C  0.24187554  0.60534704  0.50090211    -0.13500
C797        C  0.07341269  0.67439036  0.35676399    -0.12000
C798        C  0.06873473  0.64718852  0.37601822    -0.13500
C799        C  0.93331270  0.36851871  0.59935327    -0.12000
C800        C  0.93381535  0.34540887  0.62010072    -0.13500
C801        C  0.96718689  0.59380702  0.59783311    -0.12000
C802        C  0.95875806  0.61504979  0.61615616    -0.13500
C803        C  0.78475887  0.39458955  0.47570666    -0.12000
C804        C  0.74439008  0.38048768  0.47342838    -0.13500
C805        C  0.50691993  0.51955160  0.99846234    -0.12000
C806        C  0.47134904  0.48237209  0.99962181    -0.13500
C807        C  0.69266401  0.62613909  0.05589534    -0.12000
C808        C  0.66310122  0.61906266  0.03720458    -0.13500
C809        C  0.83080856  0.16247323  0.67203647    -0.12000
C810        C  0.86534267  0.19973438  0.67029760    -0.13500
C811        C  0.67656214  0.07093914  0.63126147    -0.12000
C812        C  0.64770006  0.06465606  0.61246339    -0.13500
C813        C  0.85965892  0.66784155  0.65406710    -0.12000
C814        C  0.82458258  0.66901746  0.65404245    -0.13500
C815        C  0.91670735  0.93507816  0.83807549    -0.12000
C816        C  0.87616623  0.90632573  0.83612557    -0.13500
C817        C  0.73584774  0.75949762  0.71489404    -0.12000
C818        C  0.74280414  0.73754954  0.69635946    -0.13500
C819        C  0.72441013  0.97217842  0.71863259    -0.12000
C820        C  0.73331696  0.00462794  0.70297465    -0.13500
C821        C  0.61603794  0.70403914  0.93815164    -0.12000
C822        C  0.60563519  0.67324577  0.95623257    -0.13500
C823        C  0.42120210  0.74494597  0.81425424    -0.12000
C824        C  0.46272650  0.76817313  0.81437173    -0.13500
C825        C  0.39394101  0.32806993  0.62175612    -0.12000
C826        C  0.41597781  0.35946217  0.60401679    -0.13500
C827        C  0.35394229  0.41733742  0.39090092    -0.12000
C828        C  0.32045699  0.39481876  0.37456824    -0.13500
C829        C  0.66565925  0.61550218  0.62237878    -0.12000
C830        C  0.63126259  0.59312330  0.60677628    -0.13500
C831        C  0.57732024  0.65659771  0.39104449    -0.12000
C832        C  0.59848995  0.68718288  0.37275046    -0.13500
C833        C  0.59693238  0.36954574  0.47928009    -0.12000
C834        C  0.57396506  0.38612204  0.48204024    -0.13500
C835        C  0.43035826  0.64016999  0.50617527    -0.12000
C836        C  0.40366243  0.65273349  0.50883312    -0.13500
C837        C  0.46532807  0.00236135  0.99024984    -0.12000
C838        C  0.49891706  0.99968999  0.98530743    -0.13500
C839        C  0.58268092  0.93118509  0.94422849    -0.12000
C840        C  0.59229564  0.90827243  0.92859390    -0.13500
C841        C  0.98442723  0.46892668  0.99981501    -0.12000
C842        C  0.97641253  0.49861381  0.00351681    -0.13500
C843        C  0.10352267  0.41642562  0.93038714    -0.12000
C844        C  0.07962601  0.41988866  0.94967062    -0.13500
C845        C  0.65207833  0.86817765  0.32635242    -0.12000
C846        C  0.65445374  0.83481963  0.32749806    -0.13500
C847        C  0.57252572  0.96450788  0.38811114    -0.12000
C848        C  0.59322074  0.95779211  0.36803422    -0.13500
C849        C  0.16378528  0.33779506  0.33630568    -0.12000
C850        C  0.12793307  0.33704868  0.33352917    -0.13500
C851        C  0.02600821  0.39407185  0.34991989    -0.12000
C852        C  0.01797960  0.41877581  0.36466690    -0.13500
C853        C  0.69052495  0.08344772  0.02938979    -0.12000
C854        C  0.65929801  0.06147605  0.01148647    -0.13500
C855        C  0.93232461  0.28377851  0.03269485    -0.12000
C856        C  0.95477387  0.31846201  0.01815257    -0.13500
C857        C  0.72026864  0.03980428  0.25906037    -0.12000
C858        C  0.69802859  0.01217243  0.27907434    -0.13500
C859        C  0.97629122  0.26204998  0.28558102    -0.12000
C860        C  0.94922511  0.23820092  0.26583020    -0.13500
C861        C  0.71621820  0.28531574  0.15560673    -0.12000
C862        C  0.72809360  0.26003740  0.14806279    -0.13500
C863        C  0.95563911  0.09080678  0.15389383    -0.12000
C864        C  0.96595372  0.06299170  0.15324728    -0.13500
loop_ 
_geom_bond_atom_site_label_1 
_geom_bond_atom_site_label_2 
_geom_bond_distance 
_geom_bond_site_symmetry_2 
_ccdc_geom_bond_type 
Zr1           O2   2.444       .  S
Zr1           O3   2.455       .  S
Zr1           O4   2.440       .  S
Zr1           O7   2.422       .  S
Zr1           O9   2.373       .  S
Zr1          O10   2.393       .  S
Zr1          O11   2.415       .  S
Zr1          O12   2.390       .  S
O2           H58   0.990       .  S
O2           H66   0.991       .  S
O3           C23   1.284       .  A
O4           C25   1.282       .  A
O5          Zr15   2.430       .  S
O5           C24   1.284       .  A
O6          Zr14   2.438       .  S
O6           C25   1.283       .  A
O7           C24   1.280       .  A
O8          Zr16   2.412       .  S
O8           C23   1.277       .  A
O9          Zr14   2.401       .  S
O9          Zr16   2.385       .  S
O10         Zr15   2.397       .  S
O10         Zr16   2.378       .  S
O10          H45   0.966       .  S
O11         Zr14   2.393       .  S
O11         Zr31   2.391       .  S
O11          H48   0.965       .  S
O12         Zr15   2.376       .  S
O12         Zr31   2.367       .  S
Zr13         O38   2.444       .  S
Zr13         O32   2.466       .  S
Zr13         O40   2.448       .  S
Zr13         O28   2.419       .  S
Zr13         O19   2.409       .  S
Zr13         O20   2.419       .  S
Zr13         O21   2.381       .  S
Zr13         O22   2.373       .  S
Zr14         O33   2.437       .  S
Zr14         O26   2.436       .  S
Zr14         O27   2.417       .  S
Zr14         O20   2.405       .  S
Zr14         O21   2.401       .  S
Zr15         O17   2.436       .  S
Zr15         O39   2.437       .  S
Zr15         O41   2.433       .  S
Zr15         O19   2.388       .  S
Zr15         O22   2.399       .  S
Zr16         O42   2.436       .  S
Zr16         O43   2.435       .  S
Zr16         O18   2.438       .  S
Zr16         O19   2.404       .  S
Zr16         O20   2.380       .  S
O17          H54   0.990       .  S
O18          H49   0.990       .  S
O18          H63   0.990       .  S
O20          H46   0.964       .  S
O21         Zr31   2.373       .  S
O22         Zr31   2.386       .  S
O22          H47   0.967       .  S
C23         C853   1.439       .  S
C24         C862   1.413       .  S
C25         C855   1.435       .  S
O26          H62   0.990       .  S
O27          C29   1.281       .  A
O28          C29   1.280       .  A
C29         C863   1.414       .  S
O30         Zr31   2.437       .  S
O30          H59   0.991       .  S
Zr31         O34   2.437       .  S
Zr31         O35   2.438       .  S
Zr31         O36   2.398       .  S
O32          C37   1.287       .  A
O33          H50   0.990   1_655  S
O33          H65   0.990       .  S
O34          H51   0.990       .  S
O35          H55   0.990       .  S
O35          H64   0.990       .  S
O36          C37   1.275       .  A
C37         C860   1.440       .  S
O38          H57   0.990       .  S
O38          H61   0.991       .  S
O39          H53   0.990       .  S
O39          H60   0.990       .  S
O40          C44   1.283       .  A
O41          C44   1.282       .  A
O42          H52   0.991   1_545  S
O43          H56   0.990       .  S
C44         C857   1.444       .  S
C67         C851   1.446       .  S
C67          N68   1.362       .  A
C67          N72   1.359       .  A
N68          C69   1.361       .  A
C69         C850   1.448       .  S
C69          N70   1.360       .  A
N70          C71   1.359       .  A
C71         C859   1.443   1_455  S
C71          N72   1.359       .  A
C73         C848   1.445       .  S
C73          N74   1.361       .  A
C73          N78   1.359       .  A
N74          C75   1.361       .  A
C75         C858   1.444   1_565  S
C75          N76   1.358       .  A
N76          C77   1.358       .  A
C77         C845   1.442       .  S
C77          N78   1.359       .  A
C79         C856   1.438       .  S
C79          N80   1.359       .  A
C79          N84   1.354   1_654  A
N80          C81   1.359   1_554  A
C81         C841   1.447       .  S
C81          N82   1.363   1_655  A
N82          C83   1.362       .  A
C83         C844   1.441       .  S
C83          N84   1.356       .  A
C85         C854   1.440   1_556  S
C85          N86   1.357   1_545  A
C85          N90   1.356       .  A
N86          C87   1.358       .  A
C87         C839   1.449       .  S
C87          N88   1.365       .  A
N88          C89   1.366       .  A
C89         C838   1.446       .  S
C89          N90   1.357   1_565  A
Zr91         O92   2.443       .  S
Zr91         O93   2.465       .  S
Zr91         O94   2.458       .  S
Zr91         O97   2.423       .  S
Zr91         O99   2.381       .  S
Zr91        O100   2.390       .  S
Zr91        O101   2.414       .  S
Zr91        O102   2.406       .  S
O92         H148   0.990       .  S
O92         H156   0.991       .  S
O93         C113   1.287       .  A
O94         C115   1.285       .  A
O95        Zr105   2.429       .  S
O95         C114   1.282       .  A
O96        Zr104   2.447       .  S
O96         C115   1.286       .  A
O97         C114   1.281       .  A
O98        Zr106   2.413       .  S
O98         C113   1.278       .  A
O99        Zr104   2.407       .  S
O99        Zr106   2.388       .  S
O100       Zr105   2.401       .  S
O100       Zr106   2.377       .  S
O100        H135   0.965       .  S
O101       Zr104   2.403       .  S
O101       Zr121   2.389       .  S
O101        H138   0.964       .  S
O102       Zr105   2.388       .  S
O102       Zr121   2.383       .  S
Zr103       O128   2.441       .  S
Zr103       O122   2.455       .  S
Zr103       O130   2.453       .  S
Zr103       O118   2.433       .  S
Zr103       O109   2.402       .  S
Zr103       O110   2.422       .  S
Zr103       O111   2.380       .  S
Zr103       O112   2.384       .  S
Zr104       O123   2.435       .  S
Zr104       O116   2.434       .  S
Zr104       O117   2.443       .  S
Zr104       O110   2.408       .  S
Zr104       O111   2.399       .  S
Zr105       O107   2.435       .  S
Zr105       O129   2.441       .  S
Zr105       O131   2.440       .  S
Zr105       O109   2.384       .  S
Zr105       O112   2.403       .  S
Zr106       O132   2.435       .  S
Zr106       O133   2.436       .  S
Zr106       O108   2.437       .  S
Zr106       O109   2.393       .  S
Zr106       O110   2.385       .  S
O107        H144   0.990       .  S
O108        H139   0.990       .  S
O108        H153   0.990       .  S
O110        H136   0.963       .  S
O111       Zr121   2.380       .  S
O112       Zr121   2.387       .  S
O112        H137   0.964       .  S
C113        C826   1.446       .  S
C114        C834   1.423       .  S
C115        C830   1.448       .  S
O116        H152   0.990       .  S
O117        C119   1.285       .  A
O118        C119   1.282       .  A
C119        C835   1.432       .  S
O120       Zr121   2.440       .  S
O120        H149   0.991       .  S
Zr121       O124   2.438       .  S
Zr121       O125   2.441       .  S
Zr121       O126   2.406       .  S
O122        C127   1.284       .  A
O123        H140   0.990       .  S
O123        H155   0.990       .  S
O124        H141   0.990       .  S
O125        H145   0.990       .  S
O125        H154   0.990       .  S
O126        C127   1.276       .  A
C127        C831   1.439       .  S
O128        H147   0.990       .  S
O128        H151   0.990       .  S
O129        H143   0.990       .  S
O129        H150   0.990       .  S
O130        C134   1.286       .  A
O131        C134   1.285       .  A
O132        H142   0.990       .  S
O133        H146   0.990       .  S
C134        C827   1.448       .  S
Zr157       O158   2.442       .  S
Zr157       O159   2.464       .  S
Zr157       O160   2.469       .  S
Zr157       O163   2.425       .  S
Zr157       O165   2.383       .  S
Zr157       O166   2.383       .  S
Zr157       O167   2.413       .  S
Zr157       O168   2.409       .  S
O158        H214   0.990       .  S
O158        H222   0.990       .  S
O159        C179   1.287       .  A
O160        C181   1.288       .  A
O161       Zr171   2.417       .  S
O161        C180   1.280       .  A
O162       Zr170   2.453       .  S
O162        C181   1.287       .  A
O163        C180   1.281       .  A
O164       Zr172   2.418       .  S
O164        C179   1.279       .  A
O165       Zr170   2.411       .  S
O165       Zr172   2.386       .  S
O166       Zr171   2.393       .  S
O166       Zr172   2.370       .  S
O166        H201   0.966       .  S
O167       Zr170   2.403       .  S
O167       Zr187   2.388       .  S
O167        H204   0.964       .  S
O168       Zr171   2.392       .  S
O168       Zr187   2.390       .  S
Zr169       O194   2.443       .  S
Zr169       O188   2.468       .  S
Zr169       O196   2.459       .  S
Zr169       O184   2.432       .  S
Zr169       O175   2.404       .  S
Zr169       O176   2.425       .  S
Zr169       O177   2.383       .  S
Zr169       O178   2.379       .  S
Zr170       O189   2.435       .  S
Zr170       O182   2.435       .  S
Zr170       O183   2.446       .  S
Zr170       O176   2.409       .  S
Zr170       O177   2.403       .  S
Zr171       O173   2.437       .  S
Zr171       O195   2.439       .  S
Zr171       O197   2.424       .  S
Zr171       O175   2.385       .  S
Zr171       O178   2.395       .  S
Zr172       O198   2.436       .  S
Zr172       O199   2.436       .  S
Zr172       O174   2.438       .  S
Zr172       O175   2.396       .  S
Zr172       O176   2.381       .  S
O173        H210   0.990       .  S
O174        H205   0.990       .  S
O174        H219   0.990       .  S
O176        H202   0.963       .  S
O177       Zr187   2.383       .  S
O178       Zr187   2.384       .  S
O178        H203   0.964       .  S
C179        C840   1.448       .  S
C180        C824   1.424       .  S
C181        C821   1.455       .  S
O182        H218   0.990       .  S
O183        C185   1.286       .  A
O184        C185   1.281       .  A
C185        C816   1.430       .  S
O186       Zr187   2.438       .  S
O186        H215   0.990       .  S
Zr187       O190   2.438       .  S
Zr187       O191   2.439       .  S
Zr187       O192   2.405       .  S
O188        C193   1.287       .  A
O189        H206   0.990       .  S
O189        H221   0.990       .  S
O190        H207   0.990       .  S
O191        H211   0.990       .  S
O191        H220   0.990       .  S
O192        C193   1.276       .  A
C193        C817   1.445       .  S
O194        H213   0.991       .  S
O194        H217   0.990       .  S
O195        H209   0.990       .  S
O195        H216   0.990       .  S
O196        C200   1.287       .  A
O197        C200   1.281       .  A
O198        H208   0.990       .  S
O199        H212   0.990       .  S
C200        C819   1.443       .  S
C223        C818   1.446       .  S
C223        N224   1.358       .  A
C223        N228   1.360       .  A
N224        C225   1.358       .  A
C225        C829   1.449       .  S
C225        N226   1.364       .  A
N226        C227   1.364       .  A
C227        C814   1.453       .  S
C227        N228   1.362       .  A
C229        C811   1.436       .  S
C229        N230   1.359       .  A
C229        N234   1.354       .  A
N230        C231   1.360       .  A
C231        C820   1.444       .  S
C231        N232   1.360       .  A
N232        C233   1.360       .  A
C233        C809   1.436       .  S
C233        N234   1.356       .  A
C235        C822   1.456       .  S
C235        N236   1.361       .  A
C235        N240   1.366       .  A
N236        C237   1.360   1_556  A
C237        C808   1.448       .  S
C237        N238   1.359       .  A
N238        C239   1.360   1_554  A
C239        C805   1.456       .  S
C239        N240   1.367       .  A
Zr241       O242   2.441       .  S
Zr241       O243   2.460       .  S
Zr241       O244   2.453       .  S
Zr241       O247   2.433       .  S
Zr241       O249   2.375   1_455  S
Zr241       O250   2.396       .  S
Zr241       O251   2.412       .  S
Zr241       O252   2.394       .  S
O242        H298   0.990       .  S
O242        H306   0.991       .  S
O243        C263   1.285       .  A
O244        C265   1.285       .  A
O245       Zr255   2.432       .  S
O245        C264   1.284       .  A
O246       Zr254   2.447       .  S
O246        C265   1.285   1_655  A
O247        C264   1.282       .  A
O248       Zr256   2.391   1_455  S
O248        C263   1.274       .  A
O249       Zr254   2.393       .  S
O249       Zr256   2.389       .  S
O250       Zr255   2.405       .  S
O250       Zr256   2.377   1_455  S
O250        H285   0.966       .  S
O251       Zr254   2.391   1_455  S
O251       Zr271   2.382       .  S
O251        H288   0.964       .  S
O252       Zr255   2.384       .  S
O252       Zr271   2.372       .  S
Zr253       O278   2.442       .  S
Zr253       O272   2.485       .  S
Zr253       O280   2.456       .  S
Zr253       O268   2.437       .  S
Zr253       O259   2.402       .  S
Zr253       O260   2.422       .  S
Zr253       O261   2.385       .  S
Zr253       O262   2.378   1_655  S
Zr254       O273   2.434       .  S
Zr254       O266   2.438       .  S
Zr254       O267   2.404       .  S
Zr254       O260   2.406       .  S
Zr254       O261   2.409       .  S
Zr255       O257   2.438       .  S
Zr255       O279   2.435       .  S
Zr255       O281   2.458       .  S
Zr255       O259   2.379   1_455  S
Zr255       O262   2.393       .  S
Zr256       O282   2.436   1_655  S
Zr256       O283   2.437       .  S
Zr256       O258   2.436       .  S
Zr256       O259   2.383       .  S
Zr256       O260   2.374       .  S
O257        H294   0.990       .  S
O258        H289   0.990       .  S
O258        H303   0.990       .  S
O260        H286   0.963       .  S
O261       Zr271   2.378   1_655  S
O262       Zr271   2.386       .  S
O262        H287   0.966       .  S
C263        C798   1.435       .  S
C264        C795   1.424       .  S
C265        C852   1.443       .  S
O266        H302   0.990       .  S
O267        C269   1.278       .  A
O268        C269   1.283       .  A
C269        C803   1.413       .  S
O270       Zr271   2.437       .  S
O270        H299   0.990       .  S
Zr271       O274   2.438   1_455  S
Zr271       O275   2.437       .  S
Zr271       O276   2.392   1_455  S
O272        C277   1.291       .  A
O273        H290   0.990       .  S
O273        H305   0.990       .  S
O274        H291   0.990       .  S
O275        H295   0.990       .  S
O275        H304   0.990       .  S
O276        C277   1.274       .  A
C277        C799   1.443       .  S
O278        H297   0.990       .  S
O278        H301   0.991       .  S
O279        H293   0.989       .  S
O279        H300   0.990       .  S
O280        C284   1.286       .  A
O281        C284   1.288   1_455  A
O282        H292   0.990       .  S
O283        H296   0.990       .  S
C284        C801   1.451       .  S
Zr307       O308   2.441       .  S
Zr307       O309   2.469       .  S
Zr307       O310   2.470       .  S
Zr307       O313   2.426       .  S
Zr307       O315   2.378       .  S
Zr307       O316   2.385       .  S
Zr307       O317   2.409       .  S
Zr307       O318   2.413       .  S
O308        H364   0.990       .  S
O308        H372   0.990       .  S
O309        C329   1.288       .  A
O310        C331   1.289       .  A
O311       Zr321   2.407       .  S
O311        C330   1.278       .  A
O312       Zr320   2.430       .  S
O312        C331   1.282       .  A
O313        C330   1.282       .  A
O314       Zr322   2.414       .  S
O314        C329   1.279       .  A
O315       Zr320   2.402       .  S
O315       Zr322   2.383       .  S
O316       Zr321   2.398       .  S
O316       Zr322   2.369       .  S
O316        H351   0.966       .  S
O317       Zr320   2.400       .  S
O317       Zr337   2.393       .  S
O317        H354   0.965       .  S
O318       Zr321   2.393       .  S
O318       Zr337   2.388       .  S
Zr319       O344   2.441       .  S
Zr319       O338   2.464       .  S
Zr319       O346   2.451       .  S
Zr319       O334   2.432       .  S
Zr319       O325   2.401       .  S
Zr319       O326   2.421       .  S
Zr319       O327   2.382       .  S
Zr319       O328   2.382       .  S
Zr320       O339   2.435       .  S
Zr320       O332   2.435       .  S
Zr320       O333   2.426       .  S
Zr320       O326   2.401       .  S
Zr320       O327   2.396       .  S
Zr321       O323   2.436       .  S
Zr321       O345   2.441       .  S
Zr321       O347   2.427       .  S
Zr321       O325   2.379       .  S
Zr321       O328   2.394       .  S
Zr322       O348   2.435       .  S
Zr322       O349   2.436       .  S
Zr322       O324   2.438       .  S
Zr322       O325   2.391       .  S
Zr322       O326   2.386       .  S
O323        H360   0.990       .  S
O324        H355   0.990       .  S
O324        H369   0.990       .  S
O326        H352   0.964       .  S
O327       Zr337   2.381       .  S
O328       Zr337   2.387       .  S
O328        H353   0.964       .  S
C329        C787   1.448       .  S
C330        C793   1.419       .  S
C331        C807   1.448       .  S
O332        H368   0.990       .  S
O333        C335   1.282       .  A
O334        C335   1.281       .  A
C335        C786   1.426       .  S
O336       Zr337   2.439       .  S
O336        H365   0.990       .  S
Zr337       O340   2.437       .  S
Zr337       O341   2.440       .  S
Zr337       O342   2.407       .  S
O338        C343   1.287       .  A
O339        H356   0.990       .  S
O339        H371   0.990       .  S
O340        H357   0.990       .  S
O341        H361   0.990       .  S
O341        H370   0.990       .  S
O342        C343   1.277       .  A
C343        C789   1.443       .  S
O344        H363   0.991       .  S
O344        H367   0.990       .  S
O345        H359   0.990       .  S
O345        H366   0.990       .  S
O346        C350   1.286       .  A
O347        C350   1.282       .  A
O348        H358   0.990       .  S
O349        H362   0.990       .  S
C350        C791   1.440       .  S
C373        C790   1.445       .  S
C373        N374   1.361       .  A
C373        N378   1.357       .  A
N374        C375   1.362       .  A
C375        C846   1.442       .  S
C375        N376   1.359       .  A
N376        C377   1.358       .  A
C377        C832   1.440       .  S
C377        N378   1.357       .  A
C379        C797   1.438       .  S
C379        N380   1.356       .  A
C379        N384   1.359       .  A
N380        C381   1.357       .  A
C381        C783   1.437       .  S
C381        N382   1.359       .  A
N382        C383   1.359       .  A
C383        C792   1.441   1_455  S
C383        N384   1.359       .  A
Zr385       O386   2.443       .  S
Zr385       O387   2.452       .  S
Zr385       O388   2.444       .  S
Zr385       O391   2.428       .  S
Zr385       O393   2.373   1_545  S
Zr385       O394   2.394       .  S
Zr385       O395   2.413       .  S
Zr385       O396   2.386       .  S
O386        H442   0.990       .  S
O386        H450   0.991       .  S
O387        C407   1.284       .  A
O388        C409   1.283       .  A
O389       Zr399   2.416       .  S
O389        C408   1.281       .  A
O390       Zr398   2.433       .  S
O390        C409   1.283   1_565  A
O391        C408   1.282       .  A
O392       Zr400   2.401   1_545  S
O392        C407   1.275       .  A
O393       Zr398   2.400       .  S
O393       Zr400   2.392       .  S
O394       Zr399   2.400       .  S
O394       Zr400   2.375   1_545  S
O394        H429   0.966       .  S
O395       Zr398   2.393   1_545  S
O395       Zr415   2.389       .  S
O395        H432   0.965       .  S
O396       Zr399   2.375       .  S
O396       Zr415   2.365       .  S
Zr397       O422   2.440       .  S
Zr397       O416   2.464       .  S
Zr397       O424   2.457       .  S
Zr397       O412   2.439       .  S
Zr397       O403   2.402       .  S
Zr397       O404   2.417       .  S
Zr397       O405   2.385       .  S
Zr397       O406   2.381   1_565  S
Zr398       O417   2.436       .  S
Zr398       O410   2.435       .  S
Zr398       O411   2.417       .  S
Zr398       O404   2.404       .  S
Zr398       O405   2.403       .  S
Zr399       O401   2.435       .  S
Zr399       O423   2.440       .  S
Zr399       O425   2.427       .  S
Zr399       O403   2.381   1_545  S
Zr399       O406   2.399       .  S
Zr400       O426   2.437   1_565  S
Zr400       O427   2.434       .  S
Zr400       O402   2.436       .  S
Zr400       O403   2.387       .  S
Zr400       O404   2.374       .  S
O401        H438   0.990       .  S
O402        H433   0.990       .  S
O402        H447   0.990       .  S
O404        H430   0.963       .  S
O405       Zr415   2.377   1_565  S
O406       Zr415   2.389       .  S
O406        H431   0.967       .  S
C407        C812   1.434       .  S
C408        C775   1.409       .  S
C409        C778   1.435       .  S
O410        H446   0.990       .  S
O411        C413   1.280       .  A
O412        C413   1.284       .  A
C413        C781   1.421       .  S
O414       Zr415   2.439       .  S
O414        H443   0.991       .  S
Zr415       O418   2.436   1_545  S
Zr415       O419   2.441       .  S
Zr415       O420   2.393   1_545  S
O416        C421   1.287       .  A
O417        H434   0.990       .  S
O417        H449   0.990       .  S
O418        H435   0.990   1_565  S
O419        H439   0.990       .  S
O419        H448   0.990       .  S
O420        C421   1.274       .  A
C421        C779   1.436       .  S
O422        H441   0.990       .  S
O422        H445   0.991       .  S
O423        H437   0.990       .  S
O423        H444   0.990       .  S
O424        C428   1.286       .  A
O425        C428   1.282   1_545  A
O426        H436   0.990       .  S
O427        H440   0.990       .  S
C428        C847   1.443       .  S
Zr451       O452   2.441       .  S
Zr451       O453   2.478       .  S
Zr451       O454   2.474       .  S
Zr451       O457   2.443       .  S
Zr451       O459   2.376       .  S
Zr451       O460   2.394       .  S
Zr451       O461   2.415       .  S
Zr451       O462   2.409       .  S
O452        H508   0.990       .  S
O452        H516   0.991       .  S
O453        C473   1.289       .  A
O454        C475   1.290       .  A
O455       Zr465   2.426       .  S
O455        C474   1.283       .  A
O456       Zr464   2.435       .  S
O456        C475   1.283       .  A
O457        C474   1.285       .  A
O458       Zr466   2.396       .  S
O458        C473   1.274       .  A
O459       Zr464   2.400       .  S
O459       Zr466   2.390       .  S
O460       Zr465   2.408       .  S
O460       Zr466   2.376       .  S
O460        H495   0.966       .  S
O461       Zr464   2.393       .  S
O461       Zr481   2.385       .  S
O461        H498   0.964       .  S
O462       Zr465   2.388       .  S
O462       Zr481   2.383       .  S
Zr463       O488   2.443       .  S
Zr463       O482   2.460       .  S
Zr463       O490   2.452       .  S
Zr463       O478   2.435       .  S
Zr463       O469   2.398       .  S
Zr463       O470   2.415       .  S
Zr463       O471   2.382       .  S
Zr463       O472   2.382       .  S
Zr464       O483   2.435       .  S
Zr464       O476   2.435       .  S
Zr464       O477   2.411       .  S
Zr464       O470   2.405       .  S
Zr464       O471   2.398       .  S
Zr465       O467   2.438       .  S
Zr465       O489   2.438       .  S
Zr465       O491   2.444       .  S
Zr465       O469   2.389       .  S
Zr465       O472   2.396       .  S
Zr466       O492   2.436       .  S
Zr466       O493   2.435       .  S
Zr466       O468   2.437       .  S
Zr466       O469   2.385       .  S
Zr466       O470   2.378       .  S
O467        H504   0.990       .  S
O468        H499   0.990       .  S
O468        H513   0.990       .  S
O470        H496   0.964       .  S
O471       Zr481   2.378       .  S
O472       Zr481   2.382       .  S
O472        H497   0.967       .  S
C473        C770   1.446       .  S
C474        C766   1.430       .  S
C475        C768   1.447       .  S
O476        H512   0.990       .  S
O477        C479   1.279       .  A
O478        C479   1.283       .  A
C479        C773   1.419       .  S
O480       Zr481   2.440       .  S
O480        H509   0.990   1_455  S
Zr481       O484   2.438       .  S
Zr481       O485   2.439       .  S
Zr481       O486   2.406       .  S
O482        C487   1.286       .  A
O483        H500   0.990       .  S
O483        H515   0.990       .  S
O484        H501   0.990       .  S
O485        H505   0.990       .  S
O485        H514   0.990       .  S
O486        C487   1.277       .  A
C487        C843   1.440       .  S
O488        H507   0.990       .  S
O488        H511   0.991       .  S
O489        H503   0.990       .  S
O489        H510   0.990       .  S
O490        C494   1.285       .  A
O491        C494   1.285       .  A
O492        H502   0.990       .  S
O493        H506   0.990       .  S
C494        C771   1.446       .  S
C517        C769   1.449       .  S
C517        N518   1.360       .  A
C517        N522   1.359       .  A
N518        C519   1.361       .  A
C519        C825   1.448       .  S
C519        N520   1.362       .  A
N520        C521   1.362       .  A
C521        C763   1.449       .  S
C521        N522   1.361       .  A
C523        C767   1.448   1_655  S
C523        N524   1.358       .  A
C523        N528   1.364       .  A
N524        C525   1.356       .  A
C525        C810   1.436       .  S
C525        N526   1.357       .  A
N526        C527   1.357       .  A
C527        C800   1.447       .  S
C527        N528   1.365       .  A
Zr529       O530   2.440       .  S
Zr529       O531   2.467       .  S
Zr529       O532   2.461       .  S
Zr529       O535   2.438       .  S
Zr529       O537   2.374       .  S
Zr529       O538   2.399       .  S
Zr529       O539   2.418       .  S
Zr529       O540   2.385       .  S
O530        H586   0.990       .  S
O530        H594   0.991       .  S
O531        C551   1.287       .  A
O532        C553   1.287       .  A
O533       Zr543   2.433       .  S
O533        C552   1.284       .  A
O534       Zr542   2.437       .  S
O534        C553   1.283       .  A
O535        C552   1.284       .  A
O536       Zr544   2.407       .  S
O536        C551   1.277       .  A
O537       Zr542   2.390       .  S
O537       Zr544   2.390       .  S
O538       Zr543   2.408       .  S
O538       Zr544   2.381       .  S
O538        H573   0.966       .  S
O539       Zr542   2.384       .  S
O539       Zr559   2.392       .  S
O539        H576   0.965       .  S
O540       Zr543   2.367       .  S
O540       Zr559   2.358       .  S
Zr541       O566   2.443       .  S
Zr541       O560   2.479       .  S
Zr541       O568   2.472       .  S
Zr541       O556   2.431       .  S
Zr541       O547   2.403       .  S
Zr541       O548   2.428       .  S
Zr541       O549   2.388       .  S
Zr541       O550   2.376       .  S
Zr542       O561   2.437       .  S
Zr542       O554   2.437       .  S
Zr542       O555   2.393       .  S
Zr542       O548   2.406       .  S
Zr542       O549   2.406       .  S
Zr543       O545   2.435       .  S
Zr543       O567   2.438       .  S
Zr543       O569   2.441       .  S
Zr543       O547   2.386       .  S
Zr543       O550   2.401       .  S
Zr544       O570   2.436       .  S
Zr544       O571   2.438       .  S
Zr544       O546   2.438       .  S
Zr544       O547   2.394       .  S
Zr544       O548   2.387       .  S
O545        H582   0.990       .  S
O546        H577   0.990       .  S
O546        H591   0.990       .  S
O548        H574   0.964       .  S
O549       Zr559   2.373       .  S
O550       Zr559   2.392       .  S
O550        H575   0.967       .  S
C551        C759   1.444       .  S
C552        C752   1.420       .  S
C553        C757   1.444       .  S
O554        H590   0.990       .  S
O555        C557   1.276       .  A
O556        C557   1.283       .  A
C557        C761   1.409       .  S
O558       Zr559   2.439       .  S
O558        H587   0.990   1_545  S
Zr559       O562   2.437       .  S
Zr559       O563   2.438       .  S
Zr559       O564   2.400       .  S
O560        C565   1.290       .  A
O561        H578   0.990       .  S
O561        H593   0.990       .  S
O562        H579   0.990       .  S
O563        H583   0.990       .  S
O563        H592   0.990       .  S
O564        C565   1.275       .  A
C565        C753   1.448       .  S
O566        H585   0.990       .  S
O566        H589   0.990       .  S
O567        H581   0.990       .  S
O567        H588   0.990       .  S
O568        C572   1.289       .  A
O569        C572   1.285       .  A
O570        H580   0.990       .  S
O571        H584   0.990       .  S
C572        C756   1.453       .  S
C595        C760   1.445       .  S
C595        N596   1.358       .  A
C595        N600   1.359       .  A
N596        C597   1.358       .  A
C597        C828   1.449       .  S
C597        N598   1.364       .  A
N598        C599   1.364       .  A
C599        C849   1.448       .  S
C599        N600   1.360       .  A
C601        C758   1.446   1_565  S
C601        N602   1.361       .  A
C601        N606   1.361       .  A
N602        C603   1.361       .  A
C603        C780   1.439       .  S
C603        N604   1.355       .  A
N604        C605   1.356       .  A
C605        C784   1.438       .  S
C605        N606   1.359       .  A
C607        C755   1.454       .  S
C607        N608   1.365       .  A
C607        N612   1.359       .  A
N608        C609   1.366       .  A
C609        C806   1.456   1_554  S
C609        N610   1.361   1_554  A
N610        C611   1.361       .  A
C611        C772   1.447       .  S
C611        N612   1.359   1_556  A
Zr613       O614   2.444       .  S
Zr613       O615   2.454       .  S
Zr613       O616   2.471       .  S
Zr613       O619   2.426       .  S
Zr613       O621   2.376       .  S
Zr613       O622   2.398       .  S
Zr613       O623   2.413       .  S
Zr613       O624   2.401       .  S
O614        H670   0.990       .  S
O614        H678   0.991       .  S
O615        C635   1.285       .  A
O616        C637   1.288       .  A
O617       Zr627   2.425       .  S
O617        C636   1.283       .  A
O618       Zr626   2.428       .  S
O618        C637   1.280       .  A
O619        C636   1.281       .  A
O620       Zr628   2.410       .  S
O620        C635   1.277       .  A
O621       Zr626   2.394       .  S
O621       Zr628   2.388       .  S
O622       Zr627   2.398       .  S
O622       Zr628   2.381       .  S
O622        H657   0.966       .  S
O623       Zr626   2.391       .  S
O623       Zr643   2.389       .  S
O623        H660   0.964       .  S
O624       Zr627   2.379       .  S
O624       Zr643   2.368       .  S
Zr625       O650   2.442       .  S
Zr625       O644   2.450       .  S
Zr625       O652   2.454       .  S
Zr625       O640   2.430       .  S
Zr625       O631   2.400       .  S
Zr625       O632   2.419       .  S
Zr625       O633   2.383       .  S
Zr625       O634   2.380       .  S
Zr626       O645   2.438       .  S
Zr626       O638   2.435       .  S
Zr626       O639   2.410       .  S
Zr626       O632   2.405       .  S
Zr626       O633   2.399       .  S
Zr627       O629   2.437       .  S
Zr627       O651   2.438       .  S
Zr627       O653   2.435       .  S
Zr627       O631   2.385       .  S
Zr627       O634   2.398       .  S
Zr628       O654   2.435   1_455  S
Zr628       O655   2.436   1_455  S
Zr628       O630   2.436       .  S
Zr628       O631   2.394       .  S
Zr628       O632   2.388       .  S
O629        H666   0.990       .  S
O630        H661   0.990   1_455  S
O630        H675   0.990       .  S
O632        H658   0.965       .  S
O633       Zr643   2.375       .  S
O634       Zr643   2.385       .  S
O634        H659   0.965       .  S
C635        C745   1.438       .  S
C636        C748   1.416       .  S
C637        C744   1.445       .  S
O638        H674   0.990       .  S
O639        C641   1.279       .  A
O640        C641   1.281       .  A
C641        C749   1.418       .  S
O642       Zr643   2.438       .  S
O642        H671   0.990       .  S
Zr643       O646   2.436       .  S
Zr643       O647   2.438       .  S
Zr643       O648   2.408       .  S
O644        C649   1.284       .  A
O645        H662   0.990       .  S
O645        H677   0.990       .  S
O646        H663   0.990       .  S
O647        H667   0.990       .  S
O647        H676   0.990       .  S
O648        C649   1.278       .  A
C649        C739   1.438       .  S
O650        H669   0.991       .  S
O650        H673   0.990       .  S
O651        H665   0.990       .  S
O651        H672   0.990       .  S
O652        C656   1.287       .  A
O653        C656   1.283       .  A
O654        H664   0.990       .  S
O655        H668   0.990       .  S
C656        C741   1.447       .  S
C679        C802   1.451       .  S
C679        N680   1.364       .  A
C679        N684   1.360       .  A
N680        C681   1.363       .  A
C681        C813   1.452       .  S
C681        N682   1.361       .  A
N682        C683   1.360       .  A
C683        C742   1.448   1_655  S
C683        N684   1.360       .  A
C685        C777   1.437       .  S
C685        N686   1.354       .  A
C685        N690   1.361       .  A
N686        C687   1.355       .  A
C687        C740   1.439   1_545  S
C687        N688   1.361       .  A
N688        C689   1.362       .  A
C689        C764   1.449       .  S
C689        N690   1.362       .  A
C691        C746   1.439   1_655  S
C691        N692   1.355       .  A
C691        N696   1.357   1_556  A
N692        C693   1.357   1_556  A
C693        C842   1.447       .  S
C693        N694   1.366       .  A
N694        C695   1.366       .  A
C695        C788   1.449       .  S
C695        N696   1.359       .  A
C697        C743   1.447       .  S
C697        N698   1.358       .  A
C697        N702   1.361   1_566  A
N698        C699   1.358   1_565  A
C699        C837   1.446       .  S
C699        N700   1.363   1_556  A
N700        C701   1.362       .  A
C701        C754   1.451       .  S
C701        N702   1.362       .  A
C703        C864   1.416       .  S
C703        N704   1.355   1_545  A
C703        N708   1.343   1_655  A
N704        C705   1.357       .  A
C705        C785   1.429       .  S
C705        N706   1.361   1_655  A
N706        C707   1.357   1_565  A
C707        C751   1.416       .  S
C707        N708   1.346       .  A
C709        C833   1.423       .  S
C709        N710   1.355       .  A
C709        N714   1.359       .  A
N710        C711   1.352       .  A
C711        C776   1.408       .  S
C711        N712   1.343       .  A
N712        C713   1.343       .  A
C713        C804   1.412       .  S
C713        N714   1.356       .  A
C715        C836   1.434       .  S
C715        N716   1.358       .  A
C715        N720   1.361       .  A
N716        C717   1.357       .  A
C717        C782   1.422       .  S
C717        N718   1.346       .  A
N718        C719   1.348       .  A
C719        C796   1.421       .  S
C719        N720   1.357       .  A
C721        C750   1.420       .  S
C721        N722   1.353   1_455  A
C721        N726   1.349   1_565  A
N722        C723   1.353       .  A
C723        C815   1.433       .  S
C723        N724   1.362   1_565  A
N724        C725   1.360   1_655  A
C725        C765   1.429       .  S
C725        N726   1.353       .  A
C727        C774   1.418       .  S
C727        N728   1.354       .  A
C727        N732   1.348       .  A
N728        C729   1.357       .  A
C729        C823   1.425       .  S
C729        N730   1.357       .  A
N730        C731   1.356       .  A
C731        C747   1.417       .  S
C731        N732   1.347       .  A
C733        C794   1.419       .  S
C733        N734   1.356       .  A
C733        N738   1.354       .  A
N734        C735   1.353       .  A
C735        C861   1.412       .  S
C735        N736   1.346       .  A
N736        C737   1.345       .  A
C737        C762   1.409       .  S
C737        N738   1.352       .  A
C739        C740   1.208       .  T
C741        C742   1.213       .  T
C743        C744   1.212       .  T
C745        C746   1.208       .  T
C747        C748   1.195       .  T
C749        C750   1.196       .  T
C751        C752   1.196       .  T
C753        C754   1.215       .  T
C755        C756   1.217       .  T
C757        C758   1.212       .  T
C759        C760   1.212       .  T
C761        C762   1.191       .  T
C763        C764   1.214       .  T
C765        C766   1.202       .  T
C767        C768   1.213       .  T
C769        C770   1.213       .  T
C771        C772   1.212       .  T
C773        C774   1.196       .  T
C775        C776   1.191       .  T
C777        C778   1.207       .  T
C779        C780   1.208       .  T
C781        C782   1.198       .  T
C783        C784   1.207       .  T
C785        C786   1.201       .  T
C787        C788   1.214       .  T
C789        C790   1.211       .  T
C791        C792   1.209       .  T
C793        C794   1.196       .  T
C795        C796   1.198       .  T
C797        C798   1.207       .  T
C799        C800   1.212       .  T
C801        C802   1.215       .  T
C803        C804   1.193       .  T
C805        C806   1.218       .  T
C807        C808   1.213       .  T
C809        C810   1.206       .  T
C811        C812   1.206       .  T
C813        C814   1.216       .  T
C815        C816   1.204       .  T
C817        C818   1.212       .  T
C819        C820   1.211   1_565  T
C821        C822   1.218       .  T
C823        C824   1.199       .  T
C825        C826   1.213       .  T
C827        C828   1.214       .  T
C829        C830   1.214       .  T
C831        C832   1.208       .  T
C833        C834   1.199       .  T
C835        C836   1.205       .  T
C837        C838   1.212   1_545  T
C839        C840   1.214       .  T
C841        C842   1.213   1_556  T
C843        C844   1.209       .  T
C845        C846   1.210       .  T
C847        C848   1.211       .  T
C849        C850   1.213       .  T
C851        C852   1.211       .  T
C853        C854   1.208       .  T
C855        C856   1.207       .  T
C857        C858   1.211       .  T
C859        C860   1.210       .  T
C861        C862   1.192       .  T
C863        C864   1.194       .  T
