geometry optimzed in LAMMPS
_audit_creation_date              2020-11-30 
_audit_creation_method            'lammps2cif' 
_symmetry_space_group_name_H-M    'P1' 
_symmetry_Int_Tables_number       1 
_symmetry_cell_setting            triclinic 
loop_ 
_symmetry_equiv_pos_as_xyz 
  x,y,z 
_cell_length_a                    31.369279457815054 
_cell_length_b                    31.316839654176416 
_cell_length_c                    23.669805958478094 
_cell_angle_alpha                 89.99350078260052 
_cell_angle_beta                  91.71922755875802 
_cell_angle_gamma                 120.0149109260115 
loop_ 
_atom_site_label 
_atom_site_type_symbol 
_atom_site_fract_x 
_atom_site_fract_y 
_atom_site_fract_z 
_atom_site_charge 
O1          O  0.29278404  0.11321134  0.31973644    -0.77610
C2          C  0.12792241  0.06707389  0.17311621     1.01740
O3          O  0.13592092  0.03751715  0.20125775    -0.66730
O4          O  0.21939071  0.04011732  0.18431152    -0.70320
Al5        Al  0.18873092  0.04493893  0.25006493     1.48980
C6          C  0.26499097  0.06108275  0.17695364     0.97000
O7          O  0.29166479  0.17949051  0.18610851    -0.76540
O8          O  0.22040116  0.17969977  0.31811025    -0.70100
Al9        Al  0.28779515  0.14407328  0.25281167     1.90120
O10         O  0.23389211  0.19692474  0.20463031    -0.69170
O11         O  0.13623606  0.09889941  0.29514690    -0.69020
O12         O  0.15296152  0.11291702  0.18204221    -0.74680
O13         O  0.15344394  0.04072733  0.31560074    -0.72880
O14         O  0.22179033  0.11102808  0.25097624    -1.09020
O15         O  0.23421461  0.03767482  0.29882446    -0.68210
C16         C  0.27182493  0.06752467  0.32786450     1.02510
C17         C  0.27077397  0.20440064  0.17732880     0.98900
Al18       Al  0.18886094  0.14414671  0.25007262     1.55560
O19         O  0.29490044  0.09861546  0.20578367    -0.72830
C20         C  0.12851967  0.06154009  0.32286983     1.03070
C21         C  0.26621386  0.20448740  0.32784071     0.97950
O22         O  0.29555324  0.19686405  0.30027649    -0.78150
C23         C  0.32885265  0.33121350  0.08768783     0.01700
C24         C  0.00350692  0.00180506  0.41378734     0.01700
C25         C  0.34636497  0.00631054  0.47784602    -0.12250
C26         C  0.31987018  0.32611704  0.02338424    -0.27420
H27         H  0.30214696  0.31983088  0.48551830     0.16780
H28         H  0.02964529  0.01200488  0.01200258     0.17350
C29         C  0.30292843  0.02166961  0.11134966    -0.09090
C30         C  0.28394760  0.04028659  0.13779435    -0.10650
C31         C  0.04729547  0.02641338  0.10877235    -0.09090
C32         C  0.08672909  0.04723729  0.13370572    -0.10650
C33         C  0.29068091  0.24423005  0.13825712    -0.09090
C34         C  0.30751328  0.28184717  0.11182300    -0.10650
C35         C  0.29304968  0.04835059  0.36770413    -0.09090
C36         C  0.31231614  0.02880818  0.39328744    -0.10650
C37         C  0.05133625  0.02352544  0.38711304    -0.09090
C38         C  0.08850031  0.04100995  0.36073410    -0.10650
C39         C  0.30777700  0.28356714  0.39346989    -0.09080
C40         C  0.28632042  0.24475528  0.36787709    -0.10650
O41         O  0.29278387  0.11321154  0.81973661    -0.77610
C42         C  0.12792251  0.06707395  0.67311605     1.01740
O43         O  0.13592094  0.03751718  0.70125764    -0.66730
O44         O  0.21939080  0.04011750  0.68431135    -0.70320
Al45       Al  0.18873095  0.04493897  0.75006481     1.48980
C46         C  0.26499109  0.06108286  0.67695371     0.97000
O47         O  0.29166462  0.17949037  0.68610838    -0.76540
O48         O  0.22040088  0.17969957  0.81811029    -0.70100
Al49       Al  0.28779505  0.14407335  0.75281169     1.90120
O50         O  0.23389212  0.19692480  0.70463040    -0.69170
O51         O  0.13623582  0.09889918  0.79514658    -0.69020
O52         O  0.15296167  0.11291707  0.68204199    -0.74680
O53         O  0.15344394  0.04072728  0.81560063    -0.72880
O54         O  0.22179027  0.11102808  0.75097618    -1.09020
O55         O  0.23421472  0.03767494  0.79882431    -0.68210
C56         C  0.27182491  0.06752485  0.82786453     1.02510
C57         C  0.27077389  0.20440059  0.67732877     0.98900
Al58       Al  0.18886084  0.14414665  0.75007252     1.55560
O59         O  0.29490050  0.09861548  0.70578392    -0.72830
C60         C  0.12851952  0.06153991  0.82286959     1.03070
C61         C  0.26621360  0.20448739  0.82784063     0.97950
O62         O  0.29555303  0.19686420  0.80027629    -0.78150
C63         C  0.32885259  0.33121340  0.58768779     0.01700
C64         C  0.00350677  0.00180504  0.91378718     0.01700
C65         C  0.34636477  0.00631043  0.97784598    -0.12250
C66         C  0.31987020  0.32611689  0.52338419    -0.27420
H67         H  0.30214686  0.31983065  0.98551834     0.16780
H68         H  0.02964542  0.01200575  0.51200265     0.17350
C69         C  0.30292865  0.02166977  0.61134978    -0.09090
C70         C  0.28394780  0.04028673  0.63779448    -0.10650
C71         C  0.04729552  0.02641353  0.60877240    -0.09090
C72         C  0.08672918  0.04723738  0.63370563    -0.10650
C73         C  0.29068084  0.24422999  0.63825710    -0.09090
C74         C  0.30751323  0.28184710  0.61182299    -0.10650
C75         C  0.29304970  0.04835082  0.86770418    -0.09090
C76         C  0.31231612  0.02880837  0.89328746    -0.10650
C77         C  0.05133607  0.02352527  0.88711281    -0.09090
C78         C  0.08850012  0.04100971  0.86073382    -0.10650
C79         C  0.30777674  0.28356712  0.89346983    -0.09080
C80         C  0.28632010  0.24475527  0.86787701    -0.10650
O81         O  0.29297256  0.44661679  0.31971021    -0.77610
C82         C  0.12805774  0.40036385  0.17311438     1.01740
O83         O  0.13608820  0.37082369  0.20124743    -0.66730
O84         O  0.21958312  0.37347553  0.18432362    -0.70320
Al85       Al  0.18890606  0.37828161  0.25006847     1.48980
C86         C  0.26518145  0.39446911  0.17694757     0.97000
O87         O  0.29176227  0.51286358  0.18608417    -0.76540
O88         O  0.22049331  0.51300938  0.31811829    -0.70100
Al89       Al  0.28793647  0.47745946  0.25278830     1.90120
O90         O  0.23396364  0.53025049  0.20464021    -0.69170
O91         O  0.13634644  0.43217903  0.29515444    -0.69020
O92         O  0.15306413  0.44620829  0.18205147    -0.74680
O93         O  0.15359368  0.37403508  0.31559912    -0.72880
O94         O  0.22192880  0.44437132  0.25097324    -1.09020
O95         O  0.23441062  0.37106545  0.29884111    -0.68210
C96         C  0.27202559  0.40093343  0.32786239     1.02510
C97         C  0.27084630  0.53775282  0.17732302     0.98900
Al98       Al  0.18895990  0.47745124  0.25008092     1.55560
O99         O  0.29507741  0.43202440  0.20575434    -0.72830
C100        C  0.12864118  0.39481792  0.32286586     1.03070
C101        C  0.26630652  0.53783169  0.32783322     0.97950
O102        O  0.29566124  0.53023872  0.30025718    -0.78150
C103        C  0.32886695  0.66456932  0.08767944     0.01700
C104        C  0.00361252  0.33512301  0.41377914     0.01700
C105        C  0.34647853  0.33959842  0.47783942    -0.12250
C106        C  0.31988080  0.65946776  0.02337646    -0.27420
H107        H  0.30215520  0.65316779  0.48550537     0.16780
H108        H  0.02975818  0.34521124  0.01199988     0.17350
C109        C  0.30310353  0.35503001  0.11135220    -0.09090
C110        C  0.28414785  0.37367474  0.13779568    -0.10650
C111        C  0.04742666  0.35968136  0.10877008    -0.09090
C112        C  0.08686219  0.38050441  0.13370266    -0.10650
C113        C  0.29072333  0.57758774  0.13825503    -0.09090
C114        C  0.30753434  0.61520478  0.11182109    -0.10650
C115        C  0.29326085  0.38177762  0.36771495    -0.09090
C116        C  0.31249706  0.36220600  0.39330112    -0.10650
C117        C  0.05143713  0.35677930  0.38709106    -0.09090
C118        C  0.08860629  0.37425635  0.36071629    -0.10650
C119        C  0.30781605  0.61691745  0.39345838    -0.09080
C120        C  0.28639012  0.57810377  0.36786483    -0.10650
O121        O  0.29297260  0.44661681  0.81970997    -0.77610
C122        C  0.12805765  0.40036381  0.67311431     1.01740
O123        O  0.13608816  0.37082365  0.70124730    -0.66730
O124        O  0.21958305  0.37347540  0.68432363    -0.70320
Al125      Al  0.18890598  0.37828158  0.75006843     1.48980
C126        C  0.26518135  0.39446903  0.67694744     0.97000
O127        O  0.29176216  0.51286355  0.68608397    -0.76540
O128        O  0.22049334  0.51300946  0.81811815    -0.70100
Al129      Al  0.28793642  0.47745945  0.75278809     1.90120
O130        O  0.23396351  0.53025044  0.70464005    -0.69170
O131        O  0.13634642  0.43217911  0.79515444    -0.69020
O132        O  0.15306398  0.44620824  0.68205146    -0.74680
O133        O  0.15359354  0.37403507  0.81559902    -0.72880
O134        O  0.22192873  0.44437131  0.75097313    -1.09020
O135        O  0.23441051  0.37106547  0.79884116    -0.68210
C136        C  0.27202555  0.40093347  0.82786233     1.02510
C137        C  0.27084617  0.53775279  0.67732285     0.98900
Al138      Al  0.18895984  0.47745124  0.75008083     1.55560
O139        O  0.29507733  0.43202440  0.70575409    -0.72830
C140        C  0.12864111  0.39481797  0.82286581     1.03070
C141        C  0.26630655  0.53783176  0.82783303     0.97950
O142        O  0.29566124  0.53023873  0.80025699    -0.78150
C143        C  0.32886690  0.66456937  0.58767947     0.01700
C144        C  0.00361248  0.33512315  0.91377920     0.01700
C145        C  0.34647844  0.33959841  0.97783940    -0.12250
C146        C  0.31988075  0.65946783  0.52337650    -0.27420
H147        H  0.30215518  0.65316774  0.98550530     0.16780
H148        H  0.02975813  0.34521090  0.51199984     0.17350
C149        C  0.30310342  0.35502991  0.61135207    -0.09090
C150        C  0.28414773  0.37367464  0.63779553    -0.10650
C151        C  0.04742659  0.35968133  0.60877000    -0.09090
C152        C  0.08686211  0.38050436  0.63370258    -0.10650
C153        C  0.29072320  0.57758774  0.63825492    -0.09090
C154        C  0.30753425  0.61520481  0.61182106    -0.10650
C155        C  0.29326077  0.38177768  0.86771496    -0.09090
C156        C  0.31249694  0.36220603  0.89330117    -0.10650
C157        C  0.05143707  0.35677942  0.88709105    -0.09090
C158        C  0.08860622  0.37425643  0.86071626    -0.10650
C159        C  0.30781610  0.61691754  0.89345820    -0.09080
C160        C  0.28639020  0.57810388  0.86786462    -0.10650
O161        O  0.29300310  0.77996570  0.31967626    -0.77610
C162        C  0.12806789  0.73371920  0.17310434     1.01740
O163        O  0.13611221  0.70417970  0.20121847    -0.66730
O164        O  0.21960614  0.70682624  0.18432670    -0.70320
Al165      Al  0.18891717  0.71163619  0.25005759     1.48980
C166        C  0.26520170  0.72783822  0.17692867     0.97000
O167        O  0.29176885  0.84624661  0.18609088    -0.76540
O168        O  0.22049811  0.84636227  0.31811164    -0.70100
Al169      Al  0.28794909  0.81082388  0.25277577     1.90120
O170        O  0.23394392  0.86359617  0.20463808    -0.69170
O171        O  0.13636168  0.76554168  0.29516471    -0.69020
O172        O  0.15305461  0.77956087  0.18206377    -0.74680
O173        O  0.15358875  0.70737992  0.31557605    -0.72880
O174        O  0.22193769  0.77772800  0.25096606    -1.09020
O175        O  0.23440912  0.70442052  0.29884549    -0.68210
C176        C  0.27203952  0.73428407  0.32784594     1.02510
C177        C  0.27082864  0.87111120  0.17732139     0.98900
Al178      Al  0.18896097  0.81080404  0.25008374     1.55560
O179        O  0.29509392  0.76541027  0.20571246    -0.72830
C180        C  0.12865060  0.72817447  0.32286243     1.03070
C181        C  0.26630786  0.87117205  0.32784595     0.97950
O182        O  0.29566796  0.86358280  0.30027621    -0.78150
C183        C  0.32872760  0.99790796  0.08768295     0.01700
C184        C  0.00362773  0.66847470  0.41377122     0.01700
C185        C  0.34648892  0.67295287  0.47783187    -0.12250
C186        C  0.31975358  0.99281400  0.02338097    -0.27420
H187        H  0.30202963  0.98645357  0.48551201     0.16780
H188        H  0.02976901  0.67857865  0.01198918     0.17350
C189        C  0.30312080  0.68839016  0.11134166    -0.09090
C190        C  0.28416999  0.70704325  0.13777949    -0.10650
C191        C  0.04744176  0.69303889  0.10875607    -0.09090
C192        C  0.08687684  0.71386050  0.13368825    -0.10650
C193        C  0.29067362  0.91093143  0.13823923    -0.09090
C194        C  0.30744322  0.94854357  0.11180449    -0.10650
C195        C  0.29326924  0.71512155  0.36769829    -0.09090
C196        C  0.31250133  0.69554600  0.39328580    -0.10650
C197        C  0.05145581  0.69014536  0.38709420    -0.09090
C198        C  0.08862409  0.70762062  0.36072053    -0.10650
C199        C  0.30775980  0.95024098  0.39349027    -0.09080
C200        C  0.28637633  0.91142970  0.36789175    -0.10650
O201        O  0.29300299  0.77996580  0.81967632    -0.77610
C202        C  0.12806790  0.73371919  0.67310415     1.01740
O203        O  0.13611216  0.70417974  0.70121843    -0.66730
O204        O  0.21960613  0.70682632  0.68432669    -0.70320
Al205      Al  0.18891715  0.71163630  0.75005755     1.48980
C206        C  0.26520169  0.72783830  0.67692870     0.97000
O207        O  0.29176896  0.84624672  0.68609086    -0.76540
O208        O  0.22049795  0.84636244  0.81811127    -0.70100
Al209      Al  0.28794906  0.81082397  0.75277577     1.90120
O210        O  0.23394392  0.86359621  0.70463775    -0.69170
O211        O  0.13636157  0.76554178  0.79516433    -0.69020
O212        O  0.15305469  0.77956087  0.68206339    -0.74680
O213        O  0.15358874  0.70738014  0.81557600    -0.72880
O214        O  0.22193767  0.77772810  0.75096594    -1.09020
O215        O  0.23440908  0.70442062  0.79884547    -0.68210
C216        C  0.27203945  0.73428416  0.82784597     1.02510
C217        C  0.27082873  0.87111128  0.67732123     0.98900
Al218      Al  0.18896092  0.81080412  0.75008339     1.55560
O219        O  0.29509391  0.76541034  0.70571251    -0.72830
C220        C  0.12865055  0.72817466  0.82286223     1.03070
C221        C  0.26630768  0.87117217  0.82784573     0.97950
O222        O  0.29566784  0.86358287  0.80027617    -0.78150
C223        C  0.32872782  0.99790813  0.58768301     0.01700
C224        C  0.00362771  0.66847492  0.91377112     0.01700
C225        C  0.34648893  0.67295288  0.97783179    -0.12250
C226        C  0.31975382  0.99281425  0.52338102    -0.27420
H227        H  0.30202943  0.98645368  0.98551194     0.16780
H228        H  0.02976892  0.67857853  0.51198920     0.17350
C229        C  0.30312078  0.68839024  0.61134169    -0.09090
C230        C  0.28416999  0.70704334  0.63777953    -0.10650
C231        C  0.04744169  0.69303880  0.60875606    -0.09090
C232        C  0.08687680  0.71386044  0.63368814    -0.10650
C233        C  0.29067378  0.91093153  0.63823910    -0.09090
C234        C  0.30744341  0.94854371  0.61180445    -0.10650
C235        C  0.29326917  0.71512162  0.86769831    -0.09090
C236        C  0.31250126  0.69554606  0.89328580    -0.10650
C237        C  0.05145578  0.69014562  0.88709407    -0.09090
C238        C  0.08862404  0.70762087  0.86072035    -0.10650
C239        C  0.30775956  0.95024107  0.89349010    -0.09080
C240        C  0.28637608  0.91142982  0.86789153    -0.10650
O241        O  0.62611727  0.11321130  0.31973631    -0.77610
C242        C  0.46125574  0.06707393  0.17311600     1.01740
O243        O  0.46925426  0.03751717  0.20125747    -0.66730
O244        O  0.55272406  0.04011736  0.18431127    -0.70320
Al245      Al  0.52206422  0.04493892  0.25006467     1.48980
C246        C  0.59832433  0.06108278  0.17695347     0.97000
O247        O  0.62499810  0.17949052  0.18610839    -0.76540
O248        O  0.55373442  0.17969973  0.31811010    -0.70100
Al249      Al  0.62112843  0.14407327  0.25281154     1.90120
O250        O  0.56722541  0.19692474  0.20463017    -0.69170
O251        O  0.46956933  0.09889936  0.29514671    -0.69020
O252        O  0.48629483  0.11291705  0.18204204    -0.74680
O253        O  0.48677718  0.04072724  0.31560045    -0.72880
O254        O  0.55512361  0.11102806  0.25097605    -1.09020
O255        O  0.56754788  0.03767478  0.29882422    -0.68210
C256        C  0.60515816  0.06752462  0.32786432     1.02510
C257        C  0.60410728  0.20440064  0.17732867     0.98900
Al258      Al  0.52219422  0.14414670  0.25007245     1.55560
O259        O  0.62823377  0.09861548  0.20578355    -0.72830
C260        C  0.46185293  0.06154002  0.32286960     1.03070
C261        C  0.59954712  0.20448737  0.32784058     0.97950
O262        O  0.62888650  0.19686403  0.30027637    -0.78150
C263        C  0.66218600  0.33121355  0.08768781     0.01700
C264        C  0.33684028  0.00180505  0.41378731     0.01700
C265        C  0.67969817  0.00631056  0.47784599    -0.12250
C266        C  0.65320356  0.32611713  0.02338422    -0.27420
H267        H  0.63548024  0.31983080  0.48551828     0.16780
H268        H  0.36297857  0.01200500  0.01200261     0.17350
C269        C  0.63626185  0.02166963  0.11134961    -0.09090
C270        C  0.61728101  0.04028663  0.13779424    -0.10650
C271        C  0.38062873  0.02641341  0.10877232    -0.09090
C272        C  0.42006239  0.04723734  0.13370558    -0.10650
C273        C  0.62401423  0.24423007  0.13825701    -0.09090
C274        C  0.64084663  0.28184721  0.11182293    -0.10650
C275        C  0.62638288  0.04835052  0.36770399    -0.09090
C276        C  0.64564933  0.02880813  0.39328735    -0.10650
C277        C  0.38466958  0.02352539  0.38711294    -0.09090
C278        C  0.42183360  0.04100988  0.36073391    -0.10650
C279        C  0.64111025  0.28356708  0.39346983    -0.09080
C280        C  0.61965366  0.24475524  0.36787699    -0.10650
O281        O  0.62611728  0.11321158  0.81973671    -0.77610
C282        C  0.46125586  0.06707397  0.67311621     1.01740
O283        O  0.46925426  0.03751721  0.70125787    -0.66730
O284        O  0.55272409  0.04011748  0.68431154    -0.70320
Al285      Al  0.52206430  0.04493902  0.75006501     1.48980
C286        C  0.59832437  0.06108285  0.67695383     0.97000
O287        O  0.62499798  0.17949040  0.68610849    -0.76540
O288        O  0.55373428  0.17969965  0.81811038    -0.70100
Al289      Al  0.62112842  0.14407338  0.75281179     1.90120
O290        O  0.56722549  0.19692485  0.70463050    -0.69170
O291        O  0.46956920  0.09889926  0.79514672    -0.69020
O292        O  0.48629503  0.11291710  0.68204212    -0.74680
O293        O  0.48677735  0.04072741  0.81560086    -0.72880
O294        O  0.55512363  0.11102813  0.75097632    -1.09020
O295        O  0.56754808  0.03767499  0.79882449    -0.68210
C296        C  0.60515830  0.06752489  0.82786465     1.02510
C297        C  0.60410726  0.20440062  0.67732887     0.98900
Al298      Al  0.52219421  0.14414671  0.75007264     1.55560
O299        O  0.62823381  0.09861549  0.70578400    -0.72830
C300        C  0.46185292  0.06154003  0.82286978     1.03070
C301        C  0.59954700  0.20448744  0.82784073     0.97950
O302        O  0.62888641  0.19686423  0.80027641    -0.78150
C303        C  0.66218595  0.33121340  0.58768779     0.01700
C304        C  0.33684013  0.00180509  0.91378726     0.01700
C305        C  0.67969821  0.00631042  0.97784598    -0.12250
C306        C  0.65320353  0.32611683  0.52338420    -0.27420
H307        H  0.63548026  0.31983076  0.98551833     0.16780
H308        H  0.36297883  0.01200554  0.51200265     0.17350
C309        C  0.63626188  0.02166977  0.61134981    -0.09090
C310        C  0.61728104  0.04028671  0.63779455    -0.10650
C311        C  0.38062893  0.02641352  0.60877242    -0.09090
C312        C  0.42006257  0.04723739  0.63370573    -0.10650
C313        C  0.62401422  0.24423002  0.63825719    -0.09090
C314        C  0.64084660  0.28184712  0.61182304    -0.10650
C315        C  0.62638312  0.04835086  0.86770427    -0.09090
C316        C  0.64564955  0.02880840  0.89328751    -0.10650
C317        C  0.38466945  0.02352537  0.88711294    -0.09090
C318        C  0.42183352  0.04100984  0.86073400    -0.10650
C319        C  0.64111015  0.28356720  0.89346987    -0.09080
C320        C  0.61965351  0.24475534  0.86787708    -0.10650
O321        O  0.62630587  0.44661677  0.31971019    -0.77610
C322        C  0.46139106  0.40036382  0.17311432     1.01740
O323        O  0.46942150  0.37082367  0.20124741    -0.66730
O324        O  0.55291643  0.37347551  0.18432359    -0.70320
Al325      Al  0.52223938  0.37828159  0.25006845     1.48980
C326        C  0.59851476  0.39446910  0.17694755     0.97000
O327        O  0.62509563  0.51286357  0.18608415    -0.76540
O328        O  0.55382661  0.51300937  0.31811820    -0.70100
Al329      Al  0.62126980  0.47745944  0.25278828     1.90120
O330        O  0.56729698  0.53025047  0.20464013    -0.69170
O331        O  0.46967975  0.43217902  0.29515435    -0.69020
O332        O  0.48639747  0.44620826  0.18205138    -0.74680
O333        O  0.48692702  0.37403510  0.31559910    -0.72880
O334        O  0.55526212  0.44437131  0.25097320    -1.09020
O335        O  0.56774394  0.37106543  0.29884108    -0.68210
C336        C  0.60535891  0.40093340  0.32786237     1.02510
C337        C  0.60417966  0.53775282  0.17732298     0.98900
Al338      Al  0.52229322  0.47745122  0.25008083     1.55560
O339        O  0.62841073  0.43202438  0.20575432    -0.72830
C340        C  0.46197453  0.39481794  0.32286582     1.03070
C341        C  0.59963981  0.53783166  0.32783316     0.97950
O342        O  0.62899454  0.53023869  0.30025716    -0.78150
C343        C  0.66220035  0.66456935  0.08767943     0.01700
C344        C  0.33694591  0.33512307  0.41377918     0.01700
C345        C  0.67981182  0.33959834  0.47783939    -0.12250
C346        C  0.65321422  0.65946779  0.02337644    -0.27420
H347        H  0.63548844  0.65316772  0.48550533     0.16780
H348        H  0.36309146  0.34521124  0.01199983     0.17350
C349        C  0.63643686  0.35503003  0.11135218    -0.09090
C350        C  0.61748116  0.37367474  0.13779565    -0.10650
C351        C  0.38075998  0.35968133  0.10877003    -0.09090
C352        C  0.42019551  0.38050437  0.13370261    -0.10650
C353        C  0.62405672  0.57758776  0.13825500    -0.09090
C354        C  0.64086775  0.61520480  0.11182107    -0.10650
C355        C  0.62659415  0.38177759  0.36771494    -0.09090
C356        C  0.64583035  0.36220596  0.39330111    -0.10650
C357        C  0.38477052  0.35677938  0.38709109    -0.09090
C358        C  0.42193966  0.37425641  0.36071630    -0.10650
C359        C  0.64114932  0.61691739  0.39345834    -0.09080
C360        C  0.61972340  0.57810373  0.36786478    -0.10650
O361        O  0.62630594  0.44661683  0.81970994    -0.77610
C362        C  0.46139096  0.40036376  0.67311433     1.01740
O363        O  0.46942149  0.37082361  0.70124729    -0.66730
O364        O  0.55291639  0.37347538  0.68432361    -0.70320
Al365      Al  0.52223931  0.37828154  0.75006841     1.48980
C366        C  0.59851469  0.39446902  0.67694742     0.97000
O367        O  0.62509541  0.51286350  0.68608392    -0.76540
O368        O  0.55382665  0.51300942  0.81811817    -0.70100
Al369      Al  0.62126973  0.47745944  0.75278805     1.90120
O370        O  0.56729678  0.53025039  0.70464006    -0.69170
O371        O  0.46967973  0.43217905  0.79515446    -0.69020
O372        O  0.48639726  0.44620818  0.68205149    -0.74680
O373        O  0.48692685  0.37403501  0.81559901    -0.72880
O374        O  0.55526204  0.44437127  0.75097312    -1.09020
O375        O  0.56774386  0.37106547  0.79884115    -0.68210
C376        C  0.60535890  0.40093349  0.82786230     1.02510
C377        C  0.60417941  0.53775273  0.67732282     0.98900
Al378      Al  0.52229313  0.47745119  0.75008086     1.55560
O379        O  0.62841066  0.43202439  0.70575407    -0.72830
C380        C  0.46197441  0.39481789  0.82286581     1.03070
C381        C  0.59963987  0.53783175  0.82783301     0.97950
O382        O  0.62899455  0.53023874  0.80025693    -0.78150
C383        C  0.66220012  0.66456929  0.58767942     0.01700
C384        C  0.33694575  0.33512304  0.91377915     0.01700
C385        C  0.67981183  0.33959853  0.97783940    -0.12250
C386        C  0.65321396  0.65946775  0.52337645    -0.27420
H387        H  0.63548858  0.65316776  0.98550527     0.16780
H388        H  0.36309148  0.34521083  0.51199988     0.17350
C389        C  0.63643678  0.35502991  0.61135205    -0.09090
C390        C  0.61748108  0.37367464  0.63779551    -0.10650
C391        C  0.38075989  0.35968126  0.60877003    -0.09090
C392        C  0.42019541  0.38050430  0.63370261    -0.10650
C393        C  0.62405641  0.57758766  0.63825487    -0.09090
C394        C  0.64086744  0.61520473  0.61182100    -0.10650
C395        C  0.62659413  0.38177773  0.86771495    -0.09090
C396        C  0.64583032  0.36220610  0.89330116    -0.10650
C397        C  0.38477034  0.35677930  0.88709101    -0.09090
C398        C  0.42193950  0.37425632  0.86071623    -0.10650
C399        C  0.64114945  0.61691755  0.89345817    -0.09080
C400        C  0.61972353  0.57810388  0.86786458    -0.10650
O401        O  0.62633641  0.77996567  0.31967623    -0.77610
C402        C  0.46140121  0.73371914  0.17310431     1.01740
O403        O  0.46944552  0.70417965  0.20121845    -0.66730
O404        O  0.55293946  0.70682618  0.18432669    -0.70320
Al405      Al  0.52225048  0.71163615  0.25005757     1.48980
C406        C  0.59853502  0.72783817  0.17692866     0.97000
O407        O  0.62510218  0.84624658  0.18609086    -0.76540
O408        O  0.55383141  0.84636225  0.31811157    -0.70100
Al409      Al  0.62128240  0.81082384  0.25277574     1.90120
O410        O  0.56727723  0.86359612  0.20463802    -0.69170
O411        O  0.46969499  0.76554165  0.29516466    -0.69020
O412        O  0.48638793  0.77956081  0.18206372    -0.74680
O413        O  0.48692205  0.70737990  0.31557603    -0.72880
O414        O  0.55527100  0.77772796  0.25096603    -1.09020
O415        O  0.56774242  0.70442048  0.29884548    -0.68210
C416        C  0.60537283  0.73428403  0.32784592     1.02510
C417        C  0.60416196  0.87111117  0.17732136     0.98900
Al418      Al  0.52229427  0.81080400  0.25008368     1.55560
O419        O  0.62842724  0.76541023  0.20571243    -0.72830
C420        C  0.46198391  0.72817445  0.32286240     1.03070
C421        C  0.59964116  0.87117202  0.32784591     0.97950
O422        O  0.62900127  0.86358276  0.30027620    -0.78150
C423        C  0.66206101  0.99790795  0.08768295     0.01700
C424        C  0.33696106  0.66847475  0.41377122     0.01700
C425        C  0.67982215  0.67295278  0.47783185    -0.12250
C426        C  0.65308702  0.99281399  0.02338097    -0.27420
H427        H  0.63536282  0.98645355  0.48551197     0.16780
H428        H  0.36310232  0.67857860  0.01198918     0.17350
C429        C  0.63645416  0.68839016  0.11134163    -0.09090
C430        C  0.61750332  0.70704322  0.13777947    -0.10650
C431        C  0.38077507  0.69303882  0.10875607    -0.09090
C432        C  0.42021015  0.71386043  0.13368824    -0.10650
C433        C  0.62400696  0.91093141  0.13823921    -0.09090
C434        C  0.64077659  0.94854356  0.11180449    -0.10650
C435        C  0.62660255  0.71512151  0.36769827    -0.09090
C436        C  0.64583462  0.69554595  0.39328577    -0.10650
C437        C  0.38478913  0.69014539  0.38709421    -0.09090
C438        C  0.42195741  0.70762062  0.36072052    -0.10650
C439        C  0.64109305  0.95024096  0.39349024    -0.09080
C440        C  0.61970961  0.91142968  0.36789171    -0.10650
O441        O  0.62633636  0.77996581  0.81967629    -0.77610
C442        C  0.46140123  0.73371920  0.67310418     1.01740
O443        O  0.46944550  0.70417975  0.70121845    -0.66730
O444        O  0.55293946  0.70682633  0.68432669    -0.70320
Al445      Al  0.52225049  0.71163631  0.75005756     1.48980
C446        C  0.59853502  0.72783831  0.67692868     0.97000
O447        O  0.62510228  0.84624674  0.68609084    -0.76540
O448        O  0.55383131  0.84636244  0.81811130    -0.70100
Al449      Al  0.62128240  0.81082398  0.75277575     1.90120
O450        O  0.56727725  0.86359622  0.70463778    -0.69170
O451        O  0.46969492  0.76554178  0.79516438    -0.69020
O452        O  0.48638801  0.77956088  0.68206344    -0.74680
O453        O  0.48692210  0.70738014  0.81557602    -0.72880
O454        O  0.55527101  0.77772811  0.75096594    -1.09020
O455        O  0.56774243  0.70442063  0.79884547    -0.68210
C456        C  0.60537281  0.73428417  0.82784595     1.02510
C457        C  0.60416205  0.87111130  0.67732123     0.98900
Al458      Al  0.52229426  0.81080413  0.75008343     1.55560
O459        O  0.62842725  0.76541036  0.70571247    -0.72830
C460        C  0.46198390  0.72817465  0.82286226     1.03070
C461        C  0.59964104  0.87117218  0.82784574     0.97950
O462        O  0.62900119  0.86358288  0.80027616    -0.78150
C463        C  0.66206106  0.99790816  0.58768300     0.01700
C464        C  0.33696105  0.66847484  0.91377114     0.01700
C465        C  0.67982233  0.67295290  0.97783175    -0.12250
C466        C  0.65308703  0.99281426  0.52338102    -0.27420
H467        H  0.63536288  0.98645369  0.98551196     0.16780
H468        H  0.36310225  0.67857864  0.51198922     0.17350
C469        C  0.63645406  0.68839020  0.61134167    -0.09090
C470        C  0.61750330  0.70704333  0.63777951    -0.10650
C471        C  0.38077502  0.69303883  0.60875609    -0.09090
C472        C  0.42021013  0.71386045  0.63368817    -0.10650
C473        C  0.62400709  0.91093156  0.63823911    -0.09090
C474        C  0.64077670  0.94854374  0.61180445    -0.10650
C475        C  0.62660254  0.71512164  0.86769830    -0.09090
C476        C  0.64583463  0.69554608  0.89328578    -0.10650
C477        C  0.38478912  0.69014557  0.88709409    -0.09090
C478        C  0.42195739  0.70762085  0.86072038    -0.10650
C479        C  0.64109296  0.95024109  0.89349010    -0.09080
C480        C  0.61970946  0.91142983  0.86789154    -0.10650
O481        O  0.95945065  0.11321126  0.31973639    -0.77610
C482        C  0.79458911  0.06707388  0.17311610     1.01740
O483        O  0.80258761  0.03751712  0.20125762    -0.66730
O484        O  0.88605738  0.04011726  0.18431146    -0.70320
Al485      Al  0.85539755  0.04493887  0.25006484     1.48980
C486        C  0.93165765  0.06108271  0.17695359     0.97000
O487        O  0.95833146  0.17949049  0.18610849    -0.76540
O488        O  0.88706777  0.17969971  0.31811018    -0.70100
Al489      Al  0.95446178  0.14407323  0.25281164     1.90120
O490        O  0.90055877  0.19692471  0.20463026    -0.69170
O491        O  0.80290266  0.09889935  0.29514677    -0.69020
O492        O  0.81962821  0.11291700  0.18204211    -0.74680
O493        O  0.82011050  0.04072724  0.31560061    -0.72880
O494        O  0.88845696  0.11102802  0.25097617    -1.09020
O495        O  0.90088119  0.03767474  0.29882441    -0.68210
C496        C  0.93849151  0.06752459  0.32786445     1.02510
C497        C  0.93744065  0.20440061  0.17732877     0.98900
Al498      Al  0.85552758  0.14414666  0.25007254     1.55560
O499        O  0.96156710  0.09861543  0.20578363    -0.72830
C500        C  0.79518624  0.06154001  0.32286969     1.03070
C501        C  0.93288047  0.20448733  0.32784068     0.97950
O502        O  0.96221985  0.19686397  0.30027648    -0.78150
C503        C  0.99551935  0.33121351  0.08768786     0.01700
C504        C  0.67017349  0.00180504  0.41378727     0.01700
C505        C  0.01303157  0.00631061  0.47784605    -0.12250
C506        C  0.98653690  0.32611707  0.02338427    -0.27420
H507        H  0.96881358  0.31983082  0.48551827     0.16780
H508        H  0.69631201  0.01200496  0.01200262     0.17350
C509        C  0.96959517  0.02166962  0.11134961    -0.09090
C510        C  0.95061432  0.04028658  0.13779430    -0.10650
C511        C  0.71396214  0.02641338  0.10877236    -0.09090
C512        C  0.75339579  0.04723729  0.13370565    -0.10650
C513        C  0.95734761  0.24423004  0.13825711    -0.09090
C514        C  0.97417999  0.28184717  0.11182301    -0.10650
C515        C  0.95971626  0.04835051  0.36770408    -0.09090
C516        C  0.97898274  0.02880813  0.39328741    -0.10650
C517        C  0.71800281  0.02352540  0.38711293    -0.09090
C518        C  0.75516686  0.04100988  0.36073396    -0.10650
C519        C  0.97444359  0.28356707  0.39346987    -0.09080
C520        C  0.95298701  0.24475521  0.36787707    -0.10650
O521        O  0.95945059  0.11321165  0.81973665    -0.77610
C522        C  0.79458916  0.06707406  0.67311614     1.01740
O523        O  0.80258759  0.03751730  0.70125775    -0.66730
O524        O  0.88605744  0.04011763  0.68431136    -0.70320
Al525      Al  0.85539765  0.04493910  0.75006486     1.48980
C526        C  0.93165774  0.06108296  0.67695373     0.97000
O527        O  0.95833128  0.17949047  0.68610841    -0.76540
O528        O  0.88706761  0.17969969  0.81811036    -0.70100
Al529      Al  0.95446175  0.14407346  0.75281172     1.90120
O530        O  0.90055880  0.19692493  0.70463047    -0.69170
O531        O  0.80290254  0.09889931  0.79514669    -0.69020
O532        O  0.81962832  0.11291719  0.68204207    -0.74680
O533        O  0.82011070  0.04072744  0.81560073    -0.72880
O534        O  0.88845696  0.11102821  0.75097623    -1.09020
O535        O  0.90088145  0.03767506  0.79882431    -0.68210
C536        C  0.93849164  0.06752496  0.82786454     1.02510
C537        C  0.93744056  0.20440070  0.67732881     0.98900
Al538      Al  0.85552753  0.14414677  0.75007260     1.55560
O539        O  0.96156717  0.09861557  0.70578394    -0.72830
C540        C  0.79518628  0.06154005  0.82286970     1.03070
C541        C  0.93288032  0.20448751  0.82784067     0.97950
O542        O  0.96221974  0.19686433  0.80027631    -0.78150
C543        C  0.99551927  0.33121349  0.58768778     0.01700
C544        C  0.67017355  0.00180510  0.91378727     0.01700
C545        C  0.01303146  0.00631034  0.97784590    -0.12250
C546        C  0.98653685  0.32611694  0.52338418    -0.27420
H547        H  0.96881360  0.31983077  0.98551838     0.16780
H548        H  0.69631203  0.01200561  0.51200262     0.17350
C549        C  0.96959525  0.02166981  0.61134982    -0.09090
C550        C  0.95061442  0.04028680  0.63779452    -0.10650
C551        C  0.71396219  0.02641359  0.60877239    -0.09090
C552        C  0.75339583  0.04723748  0.63370568    -0.10650
C553        C  0.95734751  0.24423009  0.63825714    -0.09090
C554        C  0.97417990  0.28184720  0.61182300    -0.10650
C555        C  0.95971643  0.04835090  0.86770417    -0.09090
C556        C  0.97898282  0.02880840  0.89328743    -0.10650
C557        C  0.71800286  0.02352537  0.88711293    -0.09090
C558        C  0.75516690  0.04100985  0.86073396    -0.10650
C559        C  0.97444349  0.28356724  0.89346987    -0.09080
C560        C  0.95298684  0.24475539  0.86787705    -0.10650
O561        O  0.95963923  0.44661676  0.31971013    -0.77610
C562        C  0.79472439  0.40036385  0.17311433     1.01740
O563        O  0.80275485  0.37082369  0.20124737    -0.66730
O564        O  0.88624977  0.37347551  0.18432358    -0.70320
Al565      Al  0.85557271  0.37828160  0.25006842     1.48980
C566        C  0.93184809  0.39446910  0.17694752     0.97000
O567        O  0.95842894  0.51286360  0.18608413    -0.76540
O568        O  0.88715997  0.51300937  0.31811825    -0.70100
Al569      Al  0.95460313  0.47745945  0.25278824     1.90120
O570        O  0.90063030  0.53025050  0.20464017    -0.69170
O571        O  0.80301309  0.43217903  0.29515440    -0.69020
O572        O  0.81973078  0.44620829  0.18205143    -0.74680
O573        O  0.82026032  0.37403507  0.31559906    -0.72880
O574        O  0.88859545  0.44437132  0.25097319    -1.09020
O575        O  0.90107726  0.37106543  0.29884106    -0.68210
C576        C  0.93869224  0.40093340  0.32786233     1.02510
C577        C  0.93751297  0.53775285  0.17732299     0.98900
Al578      Al  0.85562656  0.47745124  0.25008087     1.55560
O579        O  0.96174406  0.43202440  0.20575426    -0.72830
C580        C  0.79530783  0.39481792  0.32286581     1.03070
C581        C  0.93297318  0.53783166  0.32783318     0.97950
O582        O  0.96232790  0.53023869  0.30025715    -0.78150
C583        C  0.99553364  0.66456938  0.08767944     0.01700
C584        C  0.67027919  0.33512300  0.41377914     0.01700
C585        C  0.01314515  0.33959839  0.47783939    -0.12250
C586        C  0.98654748  0.65946783  0.02337646    -0.27420
H587        H  0.96882189  0.65316773  0.48550536     0.16780
H588        H  0.69642483  0.34521135  0.01199983     0.17350
C589        C  0.96977020  0.35502999  0.11135221    -0.09090
C590        C  0.95081450  0.37367471  0.13779565    -0.10650
C591        C  0.71409332  0.35968138  0.10877003    -0.09090
C592        C  0.75352884  0.38050442  0.13370261    -0.10650
C593        C  0.95739001  0.57758779  0.13825502    -0.09090
C594        C  0.97420103  0.61520483  0.11182109    -0.10650
C595        C  0.95992748  0.38177758  0.36771489    -0.09090
C596        C  0.97916368  0.36220595  0.39330107    -0.10650
C597        C  0.71810380  0.35677930  0.38709105    -0.09090
C598        C  0.75527295  0.37425636  0.36071626    -0.10650
C599        C  0.97448273  0.61691740  0.39345836    -0.09080
C600        C  0.95305679  0.57810373  0.36786480    -0.10650
O601        O  0.95963926  0.44661687  0.81971007    -0.77610
C602        C  0.79472433  0.40036381  0.67311434     1.01740
O603        O  0.80275485  0.37082367  0.70124734    -0.66730
O604        O  0.88624976  0.37347547  0.68432365    -0.70320
Al605      Al  0.85557268  0.37828161  0.75006846     1.48980
C606        C  0.93184807  0.39446910  0.67694749     0.97000
O607        O  0.95842884  0.51286357  0.68608403    -0.76540
O608        O  0.88715998  0.51300949  0.81811818    -0.70100
Al609      Al  0.95460310  0.47745949  0.75278817     1.90120
O610        O  0.90063018  0.53025045  0.70464007    -0.69170
O611        O  0.80301309  0.43217911  0.79515445    -0.69020
O612        O  0.81973066  0.44620824  0.68205148    -0.74680
O613        O  0.82026024  0.37403509  0.81559905    -0.72880
O614        O  0.88859541  0.44437134  0.75097318    -1.09020
O615        O  0.90107723  0.37106552  0.79884118    -0.68210
C616        C  0.93869224  0.40093353  0.82786239     1.02510
C617        C  0.93751284  0.53775279  0.67732289     0.98900
Al618      Al  0.85562650  0.47745126  0.75008086     1.55560
O619        O  0.96174404  0.43202444  0.70575419    -0.72830
C620        C  0.79530779  0.39481797  0.82286583     1.03070
C621        C  0.93297320  0.53783181  0.82783306     0.97950
O622        O  0.96232789  0.53023879  0.80025704    -0.78150
C623        C  0.99553358  0.66456933  0.58767943     0.01700
C624        C  0.67027914  0.33512313  0.91377916     0.01700
C625        C  0.01314517  0.33959851  0.97783944    -0.12250
C626        C  0.98654743  0.65946775  0.52337647    -0.27420
H627        H  0.96882184  0.65316788  0.98550528     0.16780
H628        H  0.69642482  0.34521074  0.51199986     0.17350
C629        C  0.96977014  0.35503002  0.61135206    -0.09090
C630        C  0.95081446  0.37367474  0.63779555    -0.10650
C631        C  0.71409326  0.35968129  0.60877001    -0.09090
C632        C  0.75352878  0.38050434  0.63370261    -0.10650
C633        C  0.95738988  0.57758772  0.63825494    -0.09090
C634        C  0.97420093  0.61520479  0.61182106    -0.10650
C635        C  0.95992747  0.38177776  0.86771503    -0.09090
C636        C  0.97916366  0.36220613  0.89330123    -0.10650
C637        C  0.71810373  0.35677939  0.88709102    -0.09090
C638        C  0.75527289  0.37425642  0.86071625    -0.10650
C639        C  0.97448274  0.61691761  0.89345821    -0.09080
C640        C  0.95305684  0.57810394  0.86786463    -0.10650
O641        O  0.95966979  0.77996566  0.31967631    -0.77610
C642        C  0.79473455  0.73371920  0.17310445     1.01740
O643        O  0.80277890  0.70417969  0.20121852    -0.66730
O644        O  0.88627283  0.70682623  0.18432679    -0.70320
Al645      Al  0.85558383  0.71163617  0.25005767     1.48980
C646        C  0.93186838  0.72783824  0.17692873     0.97000
O647        O  0.95843553  0.84624665  0.18609101    -0.76540
O648        O  0.88716481  0.84636228  0.31811176    -0.70100
Al649      Al  0.95461576  0.81082387  0.25277586     1.90120
O650        O  0.90061057  0.86359616  0.20463818    -0.69170
O651        O  0.80302838  0.76554169  0.29516488    -0.69020
O652        O  0.81972123  0.77956086  0.18206393    -0.74680
O653        O  0.82025536  0.70737986  0.31557610    -0.72880
O654        O  0.88860436  0.77772799  0.25096616    -1.09020
O655        O  0.90107575  0.70442049  0.29884559    -0.68210
C656        C  0.93870618  0.73428403  0.32784601     1.02510
C657        C  0.93749530  0.87111122  0.17732151     0.98900
Al658      Al  0.85562763  0.81080404  0.25008388     1.55560
O659        O  0.96176059  0.76541030  0.20571250    -0.72830
C660        C  0.79531726  0.72817444  0.32286254     1.03070
C661        C  0.93297456  0.87117203  0.32784608     0.97950
O662        O  0.96233465  0.86358275  0.30027636    -0.78150
C663        C  0.99539433  0.99790794  0.08768294     0.01700
C664        C  0.67029432  0.66847469  0.41377121     0.01700
C665        C  0.01315561  0.67295280  0.47783185    -0.12250
C666        C  0.98642030  0.99281394  0.02338095    -0.27420
H667        H  0.96869621  0.98645356  0.48551201     0.16780
H668        H  0.69643576  0.67857865  0.01198917     0.17350
C669        C  0.96978749  0.68839022  0.11134168    -0.09090
C670        C  0.95083667  0.70704329  0.13777953    -0.10650
C671        C  0.71410846  0.69303888  0.10875609    -0.09090
C672        C  0.75354351  0.71386050  0.13368832    -0.10650
C673        C  0.95734027  0.91093144  0.13823932    -0.09090
C674        C  0.97410991  0.94854356  0.11180454    -0.10650
C675        C  0.95993590  0.71512149  0.36769834    -0.09090
C676        C  0.97916800  0.69554594  0.39328583    -0.10650
C677        C  0.71812242  0.69014533  0.38709424    -0.09090
C678        C  0.75529072  0.70762058  0.36072062    -0.10650
C679        C  0.97442650  0.95024098  0.39349035    -0.09080
C680        C  0.95304304  0.91142969  0.36789187    -0.10650
O681        O  0.95966963  0.77996584  0.81967615    -0.77610
C682        C  0.79473451  0.73371908  0.67310398     1.01740
O683        O  0.80277878  0.70417964  0.70121831    -0.66730
O684        O  0.88627277  0.70682628  0.68432653    -0.70320
Al685      Al  0.85558380  0.71163626  0.75005740     1.48980
C686        C  0.93186833  0.72783827  0.67692855     0.97000
O687        O  0.95843554  0.84624667  0.68609062    -0.76540
O688        O  0.88716451  0.84636238  0.81811104    -0.70100
Al689      Al  0.95461567  0.81082396  0.75277557     1.90120
O690        O  0.90061050  0.86359613  0.70463753    -0.69170
O691        O  0.80302815  0.76554167  0.79516410    -0.69020
O692        O  0.81972132  0.77956077  0.68206315    -0.74680
O693        O  0.82025543  0.70738013  0.81557587    -0.72880
O694        O  0.88860429  0.77772806  0.75096574    -1.09020
O695        O  0.90107578  0.70442063  0.79884531    -0.68210
C696        C  0.93870613  0.73428420  0.82784581     1.02510
C697        C  0.93749530  0.87111123  0.67732101     0.98900
Al698      Al  0.85562751  0.81080404  0.75008316     1.55560
O699        O  0.96176055  0.76541032  0.70571234    -0.72830
C700        C  0.79531718  0.72817460  0.82286205     1.03070
C701        C  0.93297425  0.87117216  0.82784550     0.97950
O702        O  0.96233442  0.86358288  0.80027594    -0.78150
C703        C  0.99539439  0.99790818  0.58768301     0.01700
C704        C  0.67029442  0.66847485  0.91377110     0.01700
C705        C  0.01315559  0.67295298  0.97783177    -0.12250
C706        C  0.98642040  0.99281434  0.52338103    -0.27420
H707        H  0.96869614  0.98645364  0.98551190     0.16780
H708        H  0.69643543  0.67857855  0.51198917     0.17350
C709        C  0.96978745  0.68839019  0.61134161    -0.09090
C710        C  0.95083664  0.70704330  0.63777941    -0.10650
C711        C  0.71410825  0.69303870  0.60875601    -0.09090
C712        C  0.75354339  0.71386030  0.63368802    -0.10650
C713        C  0.95734037  0.91093151  0.63823893    -0.09090
C714        C  0.97410999  0.94854373  0.61180436    -0.10650
C715        C  0.95993586  0.71512170  0.86769820    -0.09090
C716        C  0.97916794  0.69554615  0.89328574    -0.10650
C717        C  0.71812247  0.69014557  0.88709399    -0.09090
C718        C  0.75529070  0.70762082  0.86072022    -0.10650
C719        C  0.97442613  0.95024103  0.89348995    -0.09080
C720        C  0.95304263  0.91142981  0.86789132    -0.10650
loop_ 
_geom_bond_atom_site_label_1 
_geom_bond_atom_site_label_2 
_geom_bond_distance 
_geom_bond_site_symmetry_2 
_ccdc_geom_bond_type 
O1           C16   1.258       .  A
O1           Al9   1.898       .  S
C2           O12   1.259       .  A
C2            O3   1.259       .  A
C2           C32   1.432       .  S
O3           Al5   1.906       .  S
O4            C6   1.258       .  A
O4           Al5   1.899       .  S
Al5          O13   1.899       .  S
Al5          O15   1.909       .  S
Al5          O14   1.792       .  S
C6           O19   1.259       .  A
C6           C30   1.434       .  S
O7           C17   1.259       .  A
O7           Al9   1.901       .  S
O8           C21   1.259       .  A
O8          Al18   1.901       .  S
Al9          O22   1.907       .  S
Al9          O19   1.910       .  S
Al9          O14   1.792       .  S
O10          C17   1.259       .  A
O10         Al18   1.908       .  S
O11          C20   1.259       .  A
O11         Al18   1.907       .  S
O12         Al18   1.899       .  S
O13          C20   1.258       .  A
O14         Al18   1.793       .  S
O15          C16   1.260       .  A
C16          C35   1.434       .  S
C17          C33   1.434       .  S
C20          C38   1.433       .  S
C21          O22   1.259       .  A
C21          C40   1.433       .  S
C23          C26   1.533       .  S
C23          C34   1.467       .  S
C23         C109   1.467       .  S
C23         C351   1.481       .  S
C24         C505   1.529       .  S
C24          C37   1.466       .  S
C24         C516   1.473   1_455  S
C24         C679   1.473   1_445  S
C25         C264   1.529       .  S
C25         C226   1.318   1_545  D
C25         H187   1.226   1_545  S
C26         C145   1.318   1_554  D
C26         H348   1.216       .  S
H27         C105   1.226       .  S
H28         C666   1.216   1_445  S
C29         C183   1.467   1_545  S
C29          C30   1.207       .  T
C31         C663   1.481   1_445  S
C31          C32   1.205       .  T
C33          C34   1.206       .  T
C35          C36   1.206       .  T
C36         C264   1.473       .  S
C37          C38   1.206       .  T
C39         C344   1.473       .  S
C39          C40   1.206       .  T
O41          C56   1.258       .  A
O41         Al49   1.898       .  S
C42          O52   1.259       .  A
C42          O43   1.259       .  A
C42          C72   1.432       .  S
O43         Al45   1.906       .  S
O44          C46   1.258       .  A
O44         Al45   1.899       .  S
Al45         O53   1.899       .  S
Al45         O55   1.909       .  S
Al45         O54   1.792       .  S
C46          O59   1.259       .  A
C46          C70   1.434       .  S
O47          C57   1.259       .  A
O47         Al49   1.901       .  S
O48          C61   1.259       .  A
O48         Al58   1.901       .  S
Al49         O62   1.907       .  S
Al49         O59   1.910       .  S
Al49         O54   1.792       .  S
O50          C57   1.259       .  A
O50         Al58   1.908       .  S
O51          C60   1.259       .  A
O51         Al58   1.907       .  S
O52         Al58   1.899       .  S
O53          C60   1.258       .  A
O54         Al58   1.793       .  S
O55          C56   1.260       .  A
C56          C75   1.434       .  S
C57          C73   1.434       .  S
C60          C78   1.433       .  S
C61          O62   1.259       .  A
C61          C80   1.433       .  S
C63          C66   1.533       .  S
C63         C149   1.467       .  S
C63         C391   1.481       .  S
C63          C74   1.467       .  S
C64         C545   1.529       .  S
C64         C556   1.473   1_455  S
C64          C77   1.466       .  S
C64         C719   1.473   1_445  S
C65         C304   1.529       .  S
C65         C186   1.318   1_546  D
C65         H227   1.226   1_545  S
C66         C105   1.318       .  D
C66         H388   1.216       .  S
H67         C145   1.226       .  S
H68         C706   1.216   1_445  S
C69         C223   1.467   1_545  S
C69          C70   1.207       .  T
C71         C703   1.481   1_445  S
C71          C72   1.205       .  T
C73          C74   1.206       .  T
C75          C76   1.206       .  T
C76         C304   1.473       .  S
C77          C78   1.206       .  T
C79         C384   1.473       .  S
C79          C80   1.206       .  T
O81          C96   1.258       .  A
O81         Al89   1.899       .  S
C82          O92   1.259       .  A
C82          O83   1.259       .  A
C82         C112   1.432       .  S
O83         Al85   1.906       .  S
O84          C86   1.258       .  A
O84         Al85   1.899       .  S
Al85         O93   1.899       .  S
Al85         O95   1.909       .  S
Al85         O94   1.792       .  S
C86          O99   1.259       .  A
C86         C110   1.434       .  S
O87          C97   1.259       .  A
O87         Al89   1.901       .  S
O88         C101   1.259       .  A
O88         Al98   1.901       .  S
Al89        O102   1.907       .  S
Al89         O99   1.910       .  S
Al89         O94   1.792       .  S
O90          C97   1.259       .  A
O90         Al98   1.908       .  S
O91         C100   1.259       .  A
O91         Al98   1.907       .  S
O92         Al98   1.899       .  S
O93         C100   1.258       .  A
O94         Al98   1.793       .  S
O95          C96   1.260       .  A
C96         C115   1.434       .  S
C97         C113   1.434       .  S
C100        C118   1.433       .  S
C101        O102   1.259       .  A
C101        C120   1.433       .  S
C103        C106   1.533       .  S
C103        C189   1.467       .  S
C103        C431   1.481       .  S
C103        C114   1.467       .  S
C104        C585   1.529       .  S
C104        C596   1.473   1_455  S
C104        C117   1.466       .  S
C104        C519   1.473   1_455  S
C105        C344   1.529       .  S
C106        C225   1.318   1_554  D
C106        H428   1.216       .  S
H107        C185   1.226       .  S
H108        C506   1.216   1_455  S
C109        C110   1.207       .  T
C111        C503   1.481   1_455  S
C111        C112   1.205       .  T
C113        C114   1.206       .  T
C115        C116   1.206       .  T
C116        C344   1.473       .  S
C117        C118   1.206       .  T
C119        C424   1.473       .  S
C119        C120   1.206       .  T
O121        C136   1.258       .  A
O121       Al129   1.899       .  S
C122        O132   1.259       .  A
C122        O123   1.259       .  A
C122        C152   1.432       .  S
O123       Al125   1.906       .  S
O124        C126   1.258       .  A
O124       Al125   1.899       .  S
Al125       O133   1.899       .  S
Al125       O135   1.909       .  S
Al125       O134   1.792       .  S
C126        O139   1.259       .  A
C126        C150   1.434       .  S
O127        C137   1.259       .  A
O127       Al129   1.901       .  S
O128        C141   1.259       .  A
O128       Al138   1.901       .  S
Al129       O142   1.907       .  S
Al129       O139   1.910       .  S
Al129       O134   1.792       .  S
O130        C137   1.259       .  A
O130       Al138   1.908       .  S
O131        C140   1.259       .  A
O131       Al138   1.907       .  S
O132       Al138   1.899       .  S
O133        C140   1.258       .  A
O134       Al138   1.793       .  S
O135        C136   1.260       .  A
C136        C155   1.434       .  S
C137        C153   1.434       .  S
C140        C158   1.433       .  S
C141        O142   1.259       .  A
C141        C160   1.433       .  S
C143        C146   1.533       .  S
C143        C229   1.467       .  S
C143        C471   1.481       .  S
C143        C154   1.467       .  S
C144        C625   1.529       .  S
C144        C636   1.473   1_455  S
C144        C157   1.466       .  S
C144        C559   1.473   1_455  S
C145        C384   1.529       .  S
C146        C185   1.318       .  D
C146        H468   1.216       .  S
H147        C225   1.226       .  S
H148        C546   1.216   1_455  S
C149        C150   1.207       .  T
C151        C543   1.481   1_455  S
C151        C152   1.205       .  T
C153        C154   1.206       .  T
C155        C156   1.206       .  T
C156        C384   1.473       .  S
C157        C158   1.206       .  T
C159        C464   1.473       .  S
C159        C160   1.206       .  T
O161        C176   1.258       .  A
O161       Al169   1.899       .  S
C162        O172   1.259       .  A
C162        O163   1.259       .  A
C162        C192   1.432       .  S
O163       Al165   1.906       .  S
O164        C166   1.258       .  A
O164       Al165   1.899       .  S
Al165       O173   1.899       .  S
Al165       O175   1.909       .  S
Al165       O174   1.792       .  S
C166        O179   1.259       .  A
C166        C190   1.434       .  S
O167        C177   1.259       .  A
O167       Al169   1.901       .  S
O168        C181   1.259       .  A
O168       Al178   1.901       .  S
Al169       O182   1.907       .  S
Al169       O179   1.910       .  S
Al169       O174   1.792       .  S
O170        C177   1.259       .  A
O170       Al178   1.907       .  S
O171        C180   1.259       .  A
O171       Al178   1.907       .  S
O172       Al178   1.899       .  S
O173        C180   1.258       .  A
O174       Al178   1.793       .  S
O175        C176   1.259       .  A
C176        C195   1.434       .  S
C177        C193   1.434       .  S
C180        C198   1.433       .  S
C181        O182   1.259       .  A
C181        C200   1.433       .  S
C183        C186   1.533       .  S
C183        C271   1.481   1_565  S
C183        C194   1.467       .  S
C184        C665   1.529       .  S
C184        C676   1.473   1_455  S
C184        C197   1.466       .  S
C184        C599   1.473   1_455  S
C185        C424   1.529       .  S
C186        H268   1.216   1_565  S
H188        C586   1.216   1_455  S
C189        C190   1.207       .  T
C191        C583   1.481   1_455  S
C191        C192   1.205       .  T
C193        C194   1.206       .  T
C195        C196   1.206       .  T
C196        C424   1.473       .  S
C197        C198   1.206       .  T
C199        C264   1.473   1_565  S
C199        C200   1.206       .  T
O201        C216   1.258       .  A
O201       Al209   1.899       .  S
C202        O212   1.259       .  A
C202        O203   1.259       .  A
C202        C232   1.432       .  S
O203       Al205   1.906       .  S
O204        C206   1.258       .  A
O204       Al205   1.899       .  S
Al205       O213   1.899       .  S
Al205       O215   1.909       .  S
Al205       O214   1.792       .  S
C206        O219   1.259       .  A
C206        C230   1.434       .  S
O207        C217   1.259       .  A
O207       Al209   1.901       .  S
O208        C221   1.259       .  A
O208       Al218   1.901       .  S
Al209       O222   1.907       .  S
Al209       O219   1.910       .  S
Al209       O214   1.792       .  S
O210        C217   1.259       .  A
O210       Al218   1.907       .  S
O211        C220   1.259       .  A
O211       Al218   1.907       .  S
O212       Al218   1.899       .  S
O213        C220   1.258       .  A
O214       Al218   1.793       .  S
O215        C216   1.259       .  A
C216        C235   1.434       .  S
C217        C233   1.434       .  S
C220        C238   1.433       .  S
C221        O222   1.259       .  A
C221        C240   1.433       .  S
C223        C226   1.533       .  S
C223        C311   1.481   1_565  S
C223        C234   1.467       .  S
C224        C705   1.529       .  S
C224        C716   1.473   1_455  S
C224        C237   1.466       .  S
C224        C639   1.473   1_455  S
C225        C464   1.529       .  S
C226        H308   1.216   1_565  S
H228        C626   1.216   1_455  S
C229        C230   1.207       .  T
C231        C623   1.481   1_455  S
C231        C232   1.205       .  T
C233        C234   1.206       .  T
C235        C236   1.206       .  T
C236        C464   1.473       .  S
C237        C238   1.206       .  T
C239        C304   1.473   1_565  S
C239        C240   1.206       .  T
O241        C256   1.258       .  A
O241       Al249   1.898       .  S
C242        O252   1.259       .  A
C242        O243   1.259       .  A
C242        C272   1.432       .  S
O243       Al245   1.906       .  S
O244        C246   1.258       .  A
O244       Al245   1.899       .  S
Al245       O253   1.899       .  S
Al245       O255   1.909       .  S
Al245       O254   1.792       .  S
C246        O259   1.259       .  A
C246        C270   1.434       .  S
O247        C257   1.259       .  A
O247       Al249   1.901       .  S
O248        C261   1.259       .  A
O248       Al258   1.901       .  S
Al249       O262   1.907       .  S
Al249       O259   1.910       .  S
Al249       O254   1.792       .  S
O250        C257   1.259       .  A
O250       Al258   1.908       .  S
O251        C260   1.259       .  A
O251       Al258   1.907       .  S
O252       Al258   1.899       .  S
O253        C260   1.258       .  A
O254       Al258   1.793       .  S
O255        C256   1.260       .  A
C256        C275   1.434       .  S
C257        C273   1.434       .  S
C260        C278   1.433       .  S
C261        O262   1.259       .  A
C261        C280   1.433       .  S
C263        C266   1.533       .  S
C263        C349   1.467       .  S
C263        C591   1.481       .  S
C263        C274   1.467       .  S
C264        C277   1.466       .  S
C265        C504   1.529       .  S
C265        C466   1.318   1_545  D
C265        H427   1.226   1_545  S
C266        C385   1.318   1_554  D
C266        H588   1.216       .  S
H267        C345   1.226       .  S
C269        C423   1.467   1_545  S
C269        C270   1.207       .  T
C271        C272   1.205       .  T
C273        C274   1.206       .  T
C275        C276   1.206       .  T
C276        C504   1.473       .  S
C277        C278   1.206       .  T
C279        C584   1.473       .  S
C279        C280   1.206       .  T
O281        C296   1.258       .  A
O281       Al289   1.898       .  S
C282        O292   1.259       .  A
C282        O283   1.259       .  A
C282        C312   1.432       .  S
O283       Al285   1.906       .  S
O284        C286   1.258       .  A
O284       Al285   1.899       .  S
Al285       O293   1.899       .  S
Al285       O295   1.909       .  S
Al285       O294   1.792       .  S
C286        O299   1.259       .  A
C286        C310   1.434       .  S
O287        C297   1.259       .  A
O287       Al289   1.901       .  S
O288        C301   1.259       .  A
O288       Al298   1.901       .  S
Al289       O302   1.907       .  S
Al289       O299   1.910       .  S
Al289       O294   1.792       .  S
O290        C297   1.259       .  A
O290       Al298   1.908       .  S
O291        C300   1.259       .  A
O291       Al298   1.907       .  S
O292       Al298   1.899       .  S
O293        C300   1.258       .  A
O294       Al298   1.793       .  S
O295        C296   1.260       .  A
C296        C315   1.434       .  S
C297        C313   1.434       .  S
C300        C318   1.433       .  S
C301        O302   1.259       .  A
C301        C320   1.433       .  S
C303        C306   1.533       .  S
C303        C389   1.467       .  S
C303        C631   1.481       .  S
C303        C314   1.467       .  S
C304        C317   1.466       .  S
C305        C544   1.529       .  S
C305        C426   1.318   1_546  D
C305        H467   1.226   1_545  S
C306        C345   1.318       .  D
C306        H628   1.216       .  S
H307        C385   1.226       .  S
C309        C463   1.467   1_545  S
C309        C310   1.207       .  T
C311        C312   1.205       .  T
C313        C314   1.206       .  T
C315        C316   1.206       .  T
C316        C544   1.473       .  S
C317        C318   1.206       .  T
C319        C624   1.473       .  S
C319        C320   1.206       .  T
O321        C336   1.258       .  A
O321       Al329   1.899       .  S
C322        O332   1.259       .  A
C322        O323   1.259       .  A
C322        C352   1.432       .  S
O323       Al325   1.906       .  S
O324        C326   1.258       .  A
O324       Al325   1.899       .  S
Al325       O333   1.899       .  S
Al325       O335   1.909       .  S
Al325       O334   1.792       .  S
C326        O339   1.259       .  A
C326        C350   1.434       .  S
O327        C337   1.259       .  A
O327       Al329   1.901       .  S
O328        C341   1.259       .  A
O328       Al338   1.901       .  S
Al329       O342   1.907       .  S
Al329       O339   1.910       .  S
Al329       O334   1.792       .  S
O330        C337   1.259       .  A
O330       Al338   1.908       .  S
O331        C340   1.259       .  A
O331       Al338   1.907       .  S
O332       Al338   1.899       .  S
O333        C340   1.258       .  A
O334       Al338   1.793       .  S
O335        C336   1.260       .  A
C336        C355   1.434       .  S
C337        C353   1.434       .  S
C340        C358   1.433       .  S
C341        O342   1.259       .  A
C341        C360   1.433       .  S
C343        C346   1.533       .  S
C343        C429   1.467       .  S
C343        C671   1.481       .  S
C343        C354   1.467       .  S
C344        C357   1.466       .  S
C345        C584   1.529       .  S
C346        C465   1.318   1_554  D
C346        H668   1.216       .  S
H347        C425   1.226       .  S
C349        C350   1.207       .  T
C351        C352   1.205       .  T
C353        C354   1.206       .  T
C355        C356   1.206       .  T
C356        C584   1.473       .  S
C357        C358   1.206       .  T
C359        C664   1.473       .  S
C359        C360   1.206       .  T
O361        C376   1.258       .  A
O361       Al369   1.899       .  S
C362        O372   1.259       .  A
C362        O363   1.259       .  A
C362        C392   1.432       .  S
O363       Al365   1.906       .  S
O364        C366   1.258       .  A
O364       Al365   1.899       .  S
Al365       O373   1.899       .  S
Al365       O375   1.909       .  S
Al365       O374   1.792       .  S
C366        O379   1.259       .  A
C366        C390   1.434       .  S
O367        C377   1.259       .  A
O367       Al369   1.901       .  S
O368        C381   1.259       .  A
O368       Al378   1.901       .  S
Al369       O382   1.907       .  S
Al369       O379   1.910       .  S
Al369       O374   1.792       .  S
O370        C377   1.259       .  A
O370       Al378   1.908       .  S
O371        C380   1.259       .  A
O371       Al378   1.907       .  S
O372       Al378   1.899       .  S
O373        C380   1.258       .  A
O374       Al378   1.793       .  S
O375        C376   1.260       .  A
C376        C395   1.434       .  S
C377        C393   1.434       .  S
C380        C398   1.433       .  S
C381        O382   1.259       .  A
C381        C400   1.433       .  S
C383        C386   1.533       .  S
C383        C469   1.467       .  S
C383        C711   1.481       .  S
C383        C394   1.467       .  S
C384        C397   1.466       .  S
C385        C624   1.529       .  S
C386        C425   1.318       .  D
C386        H708   1.216       .  S
H387        C465   1.226       .  S
C389        C390   1.207       .  T
C391        C392   1.205       .  T
C393        C394   1.206       .  T
C395        C396   1.206       .  T
C396        C624   1.473       .  S
C397        C398   1.206       .  T
C399        C704   1.473       .  S
C399        C400   1.206       .  T
O401        C416   1.258       .  A
O401       Al409   1.899       .  S
C402        O412   1.259       .  A
C402        O403   1.259       .  A
C402        C432   1.432       .  S
O403       Al405   1.906       .  S
O404        C406   1.258       .  A
O404       Al405   1.899       .  S
Al405       O413   1.899       .  S
Al405       O415   1.909       .  S
Al405       O414   1.792       .  S
C406        O419   1.259       .  A
C406        C430   1.434       .  S
O407        C417   1.259       .  A
O407       Al409   1.901       .  S
O408        C421   1.259       .  A
O408       Al418   1.901       .  S
Al409       O422   1.907       .  S
Al409       O419   1.910       .  S
Al409       O414   1.792       .  S
O410        C417   1.259       .  A
O410       Al418   1.907       .  S
O411        C420   1.259       .  A
O411       Al418   1.907       .  S
O412       Al418   1.899       .  S
O413        C420   1.258       .  A
O414       Al418   1.793       .  S
O415        C416   1.259       .  A
C416        C435   1.434       .  S
C417        C433   1.434       .  S
C420        C438   1.433       .  S
C421        O422   1.259       .  A
C421        C440   1.433       .  S
C423        C426   1.533       .  S
C423        C511   1.481   1_565  S
C423        C434   1.467       .  S
C424        C437   1.466       .  S
C425        C664   1.529       .  S
C426        H508   1.216   1_565  S
C429        C430   1.207       .  T
C431        C432   1.205       .  T
C433        C434   1.206       .  T
C435        C436   1.206       .  T
C436        C664   1.473       .  S
C437        C438   1.206       .  T
C439        C504   1.473   1_565  S
C439        C440   1.206       .  T
O441        C456   1.258       .  A
O441       Al449   1.899       .  S
C442        O452   1.259       .  A
C442        O443   1.259       .  A
C442        C472   1.432       .  S
O443       Al445   1.906       .  S
O444        C446   1.258       .  A
O444       Al445   1.899       .  S
Al445       O453   1.899       .  S
Al445       O455   1.909       .  S
Al445       O454   1.792       .  S
C446        O459   1.259       .  A
C446        C470   1.434       .  S
O447        C457   1.259       .  A
O447       Al449   1.901       .  S
O448        C461   1.259       .  A
O448       Al458   1.901       .  S
Al449       O462   1.907       .  S
Al449       O459   1.910       .  S
Al449       O454   1.792       .  S
O450        C457   1.259       .  A
O450       Al458   1.907       .  S
O451        C460   1.259       .  A
O451       Al458   1.907       .  S
O452       Al458   1.899       .  S
O453        C460   1.258       .  A
O454       Al458   1.793       .  S
O455        C456   1.259       .  A
C456        C475   1.434       .  S
C457        C473   1.434       .  S
C460        C478   1.433       .  S
C461        O462   1.259       .  A
C461        C480   1.433       .  S
C463        C466   1.533       .  S
C463        C551   1.481   1_565  S
C463        C474   1.467       .  S
C464        C477   1.466       .  S
C465        C704   1.529       .  S
C466        H548   1.216   1_565  S
C469        C470   1.207       .  T
C471        C472   1.205       .  T
C473        C474   1.206       .  T
C475        C476   1.206       .  T
C476        C704   1.473       .  S
C477        C478   1.206       .  T
C479        C544   1.473   1_565  S
C479        C480   1.206       .  T
O481        C496   1.258       .  A
O481       Al489   1.898       .  S
C482        O492   1.259       .  A
C482        O483   1.259       .  A
C482        C512   1.432       .  S
O483       Al485   1.906       .  S
O484        C486   1.258       .  A
O484       Al485   1.899       .  S
Al485       O493   1.899       .  S
Al485       O495   1.909       .  S
Al485       O494   1.792       .  S
C486        O499   1.259       .  A
C486        C510   1.434       .  S
O487        C497   1.259       .  A
O487       Al489   1.901       .  S
O488        C501   1.259       .  A
O488       Al498   1.901       .  S
Al489       O502   1.907       .  S
Al489       O499   1.910       .  S
Al489       O494   1.792       .  S
O490        C497   1.259       .  A
O490       Al498   1.908       .  S
O491        C500   1.259       .  A
O491       Al498   1.907       .  S
O492       Al498   1.899       .  S
O493        C500   1.258       .  A
O494       Al498   1.793       .  S
O495        C496   1.260       .  A
C496        C515   1.434       .  S
C497        C513   1.434       .  S
C500        C518   1.433       .  S
C501        O502   1.259       .  A
C501        C520   1.433       .  S
C503        C506   1.533       .  S
C503        C589   1.467       .  S
C503        C514   1.467       .  S
C504        C517   1.466       .  S
C505        C706   1.318   1_445  D
C505        H667   1.226   1_445  S
C506        C625   1.318   1_654  D
H507        C585   1.226   1_655  S
C509        C663   1.467   1_545  S
C509        C510   1.207       .  T
C511        C512   1.205       .  T
C513        C514   1.206       .  T
C515        C516   1.206       .  T
C517        C518   1.206       .  T
C519        C520   1.206       .  T
O521        C536   1.258       .  A
O521       Al529   1.898       .  S
C522        O532   1.259       .  A
C522        O523   1.259       .  A
C522        C552   1.432       .  S
O523       Al525   1.906       .  S
O524        C526   1.258       .  A
O524       Al525   1.899       .  S
Al525       O533   1.899       .  S
Al525       O535   1.909       .  S
Al525       O534   1.792       .  S
C526        O539   1.259       .  A
C526        C550   1.434       .  S
O527        C537   1.259       .  A
O527       Al529   1.901       .  S
O528        C541   1.259       .  A
O528       Al538   1.901       .  S
Al529       O542   1.907       .  S
Al529       O539   1.910       .  S
Al529       O534   1.792       .  S
O530        C537   1.259       .  A
O530       Al538   1.908       .  S
O531        C540   1.259       .  A
O531       Al538   1.907       .  S
O532       Al538   1.899       .  S
O533        C540   1.258       .  A
O534       Al538   1.793       .  S
O535        C536   1.260       .  A
C536        C555   1.434       .  S
C537        C553   1.434       .  S
C540        C558   1.433       .  S
C541        O542   1.259       .  A
C541        C560   1.433       .  S
C543        C546   1.533       .  S
C543        C629   1.467       .  S
C543        C554   1.467       .  S
C544        C557   1.466       .  S
C545        C666   1.318   1_446  D
C545        H707   1.226   1_445  S
C546        C585   1.318   1_655  D
H547        C625   1.226   1_655  S
C549        C703   1.467   1_545  S
C549        C550   1.207       .  T
C551        C552   1.205       .  T
C553        C554   1.206       .  T
C555        C556   1.206       .  T
C557        C558   1.206       .  T
C559        C560   1.206       .  T
O561        C576   1.258       .  A
O561       Al569   1.899       .  S
C562        O572   1.259       .  A
C562        O563   1.259       .  A
C562        C592   1.432       .  S
O563       Al565   1.906       .  S
O564        C566   1.258       .  A
O564       Al565   1.899       .  S
Al565       O573   1.899       .  S
Al565       O575   1.909       .  S
Al565       O574   1.792       .  S
C566        O579   1.259       .  A
C566        C590   1.434       .  S
O567        C577   1.259       .  A
O567       Al569   1.901       .  S
O568        C581   1.259       .  A
O568       Al578   1.901       .  S
Al569       O582   1.907       .  S
Al569       O579   1.910       .  S
Al569       O574   1.792       .  S
O570        C577   1.259       .  A
O570       Al578   1.908       .  S
O571        C580   1.259       .  A
O571       Al578   1.907       .  S
O572       Al578   1.899       .  S
O573        C580   1.258       .  A
O574       Al578   1.793       .  S
O575        C576   1.260       .  A
C576        C595   1.434       .  S
C577        C593   1.434       .  S
C580        C598   1.433       .  S
C581        O582   1.259       .  A
C581        C600   1.433       .  S
C583        C586   1.533       .  S
C583        C669   1.467       .  S
C583        C594   1.467       .  S
C584        C597   1.466       .  S
C586        C705   1.318   1_654  D
H587        C665   1.226   1_655  S
C589        C590   1.207       .  T
C591        C592   1.205       .  T
C593        C594   1.206       .  T
C595        C596   1.206       .  T
C597        C598   1.206       .  T
C599        C600   1.206       .  T
O601        C616   1.258       .  A
O601       Al609   1.899       .  S
C602        O612   1.259       .  A
C602        O603   1.259       .  A
C602        C632   1.432       .  S
O603       Al605   1.906       .  S
O604        C606   1.258       .  A
O604       Al605   1.899       .  S
Al605       O613   1.899       .  S
Al605       O615   1.909       .  S
Al605       O614   1.792       .  S
C606        O619   1.259       .  A
C606        C630   1.434       .  S
O607        C617   1.259       .  A
O607       Al609   1.901       .  S
O608        C621   1.259       .  A
O608       Al618   1.901       .  S
Al609       O622   1.907       .  S
Al609       O619   1.910       .  S
Al609       O614   1.792       .  S
O610        C617   1.259       .  A
O610       Al618   1.908       .  S
O611        C620   1.259       .  A
O611       Al618   1.907       .  S
O612       Al618   1.899       .  S
O613        C620   1.258       .  A
O614       Al618   1.793       .  S
O615        C616   1.260       .  A
C616        C635   1.434       .  S
C617        C633   1.434       .  S
C620        C638   1.433       .  S
C621        O622   1.259       .  A
C621        C640   1.433       .  S
C623        C626   1.533       .  S
C623        C709   1.467       .  S
C623        C634   1.467       .  S
C624        C637   1.466       .  S
C626        C665   1.318   1_655  D
H627        C705   1.226   1_655  S
C629        C630   1.207       .  T
C631        C632   1.205       .  T
C633        C634   1.206       .  T
C635        C636   1.206       .  T
C637        C638   1.206       .  T
C639        C640   1.206       .  T
O641        C656   1.258       .  A
O641       Al649   1.899       .  S
C642        O652   1.259       .  A
C642        O643   1.259       .  A
C642        C672   1.432       .  S
O643       Al645   1.906       .  S
O644        C646   1.258       .  A
O644       Al645   1.899       .  S
Al645       O653   1.899       .  S
Al645       O655   1.909       .  S
Al645       O654   1.792       .  S
C646        O659   1.259       .  A
C646        C670   1.434       .  S
O647        C657   1.259       .  A
O647       Al649   1.901       .  S
O648        C661   1.259       .  A
O648       Al658   1.901       .  S
Al649       O662   1.907       .  S
Al649       O659   1.910       .  S
Al649       O654   1.792       .  S
O650        C657   1.259       .  A
O650       Al658   1.907       .  S
O651        C660   1.259       .  A
O651       Al658   1.907       .  S
O652       Al658   1.899       .  S
O653        C660   1.258       .  A
O654       Al658   1.793       .  S
O655        C656   1.259       .  A
C656        C675   1.434       .  S
C657        C673   1.434       .  S
C660        C678   1.433       .  S
C661        O662   1.259       .  A
C661        C680   1.433       .  S
C663        C666   1.533       .  S
C663        C674   1.467       .  S
C664        C677   1.466       .  S
C669        C670   1.207       .  T
C671        C672   1.205       .  T
C673        C674   1.206       .  T
C675        C676   1.206       .  T
C677        C678   1.206       .  T
C679        C680   1.206       .  T
O681        C696   1.258       .  A
O681       Al689   1.899       .  S
C682        O692   1.259       .  A
C682        O683   1.259       .  A
C682        C712   1.432       .  S
O683       Al685   1.906       .  S
O684        C686   1.258       .  A
O684       Al685   1.899       .  S
Al685       O693   1.899       .  S
Al685       O695   1.909       .  S
Al685       O694   1.792       .  S
C686        O699   1.259       .  A
C686        C710   1.434       .  S
O687        C697   1.259       .  A
O687       Al689   1.901       .  S
O688        C701   1.259       .  A
O688       Al698   1.901       .  S
Al689       O702   1.907       .  S
Al689       O699   1.910       .  S
Al689       O694   1.792       .  S
O690        C697   1.259       .  A
O690       Al698   1.907       .  S
O691        C700   1.259       .  A
O691       Al698   1.907       .  S
O692       Al698   1.899       .  S
O693        C700   1.258       .  A
O694       Al698   1.793       .  S
O695        C696   1.259       .  A
C696        C715   1.434       .  S
C697        C713   1.434       .  S
C700        C718   1.433       .  S
C701        O702   1.259       .  A
C701        C720   1.433       .  S
C703        C706   1.533       .  S
C703        C714   1.467       .  S
C704        C717   1.466       .  S
C709        C710   1.207       .  T
C711        C712   1.205       .  T
C713        C714   1.206       .  T
C715        C716   1.206       .  T
C717        C718   1.206       .  T
C719        C720   1.206       .  T
