geometry optimzed in LAMMPS
_audit_creation_date              2020-12-01 
_audit_creation_method            'lammps2cif' 
_symmetry_space_group_name_H-M    'P1' 
_symmetry_Int_Tables_number       1 
_symmetry_cell_setting            triclinic 
loop_ 
_symmetry_equiv_pos_as_xyz 
  x,y,z 
_cell_length_a                    29.23765351 
_cell_length_b                    29.463392051825778 
_cell_length_c                    29.31327267909355 
_cell_angle_alpha                 89.94115860472533 
_cell_angle_beta                  89.99580538515073 
_cell_angle_gamma                 90.06398415511049 
loop_ 
_atom_site_label 
_atom_site_type_symbol 
_atom_site_fract_x 
_atom_site_fract_y 
_atom_site_fract_z 
_atom_site_charge 
C1          C  0.43209111  0.60428378  0.87082548     0.42100
N2          N  0.44586952  0.55763937  0.92506263     0.01000
C3          C  0.63826543  0.54926726  0.06140539    -0.06900
H4          H  0.66690092  0.52295643  0.88349395     0.06500
C5          C  0.57462323  0.38339647  0.89516054    -0.07300
Co6        Co  0.53065128  0.58264388  0.97562198     0.74200
N7          N  0.61059516  0.54234357  0.92708044    -0.26400
Co8        Co  0.60697215  0.49306011  0.97766627     0.74100
C9          C  0.61671859  0.39816069  0.87316925     0.42200
N10         N  0.46770303  0.42262035  0.92547719     0.00600
N11         N  0.60269617  0.44233350  0.92899842     0.00700
N12         N  0.58738875  0.60711409  0.05914931    -0.47300
H13         H  0.49654088  0.64636636  0.88708209     0.06400
N14         N  0.58126899  0.57640662  0.92585618     0.01000
N15         N  0.60016284  0.44415533  0.02842593     0.00700
C16         C  0.60988955  0.40410020  0.08836345     0.42300
N17         N  0.43871699  0.45696964  0.92457375    -0.25900
C18         C  0.47551252  0.61185686  0.06184102    -0.06800
N19         N  0.41577731  0.56737417  0.89276648    -0.47000
N20         N  0.62775305  0.43840740  0.06368734    -0.47200
C21         C  0.43380006  0.59616957  0.08405881     0.42100
N22         N  0.58058333  0.57800086  0.02553270     0.01000
N23         N  0.43506558  0.45664915  0.02340418    -0.25900
N24         N  0.48036497  0.58645011  0.92606480    -0.26400
N25         N  0.46440826  0.42275053  0.02493018     0.00600
H26         H  0.37646057  0.47416235  0.06460608     0.06500
H27         H  0.54484622  0.36219356  0.07489773     0.06500
N28         N  0.60967883  0.54390424  0.02619525    -0.26500
N29         N  0.56847595  0.41315090  0.92911627    -0.26100
N30         N  0.44489313  0.55648224  0.02430428     0.01000
C31         C  0.62370282  0.58608479  0.86747934     0.42400
C32         C  0.41108482  0.45237797  0.88855336    -0.07300
N33         N  0.56532406  0.41559979  0.02854747    -0.26100
H34         H  0.55224144  0.35535242  0.88675740     0.06500
N35         N  0.58788629  0.60354813  0.89045040    -0.47300
H36         H  0.38389801  0.47534910  0.87895398     0.06500
C37         C  0.41843866  0.40994669  0.08009999     0.42200
C38         C  0.47456273  0.61745645  0.89323186    -0.06800
Co39       Co  0.44002795  0.50704617  0.97418655     0.73800
N40         N  0.46156889  0.39404262  0.89121923    -0.47000
C41         C  0.62275722  0.59075150  0.08354710     0.42500
N42         N  0.41624519  0.56231255  0.05869289    -0.47000
Co43       Co  0.51639236  0.41731105  0.97705323     0.73900
C44         C  0.56839101  0.38894862  0.06550821    -0.07300
C45         C  0.63928449  0.54594051  0.89163470    -0.06900
N46         N  0.47974536  0.58501994  0.02523867    -0.26400
N47         N  0.63253957  0.43454284  0.89604126    -0.47200
H48         H  0.66625024  0.52693364  0.07014408     0.06500
C49         C  0.40451755  0.45148154  0.05705964    -0.07300
Cl50       Cl  0.52350221  0.50001578  0.97606319    -0.50300
C51         C  0.42618117  0.41057504  0.86690190     0.42200
H52         H  0.49873251  0.63870625  0.07167478     0.06400
N53         N  0.45607949  0.39423317  0.05881754    -0.47000
C54         C  0.41478803  0.89687888  0.56601450     0.42100
N55         N  0.45887726  0.95326509  0.55348229     0.01000
C56         C  0.47117496  0.08833458  0.36200442    -0.06900
H57         H  0.48761354  0.91429511  0.32947693     0.06500
C58         C  0.63205441  0.91753251  0.42608353    -0.07300
Co59       Co  0.43365142  0.00372038  0.46917906     0.74200
N60         N  0.47225517  0.95511744  0.38867578    -0.26400
Co61       Co  0.52404053  0.00294613  0.39272864     0.74100
C62         C  0.61753846  0.89605561  0.38375943     0.42200
N63         N  0.59421846  0.95110473  0.53276054     0.00600
N64         N  0.57363731  0.95239711  0.39743042     0.00700
N65         N  0.41318472  0.08945468  0.41334272    -0.47300
H66         H  0.37287227  0.91039574  0.50094419     0.06400
N67         N  0.43800002  0.95502518  0.41801014     0.01000
N68         N  0.57491748  0.05182842  0.39878438     0.00700
C69         C  0.61644922  0.11061969  0.38901323     0.42300
N70         N  0.55961156  0.95183234  0.56165090    -0.25900
C71         C  0.40129384  0.08642188  0.52699796    -0.06800
N72         N  0.45083905  0.91999603  0.58269227    -0.47000
N73         N  0.58090887  0.08723791  0.37164008    -0.47200
C74         C  0.41641364  0.10779142  0.56912372     0.42100
N75         N  0.44039376  0.05412502  0.41973234     0.01000
N76         N  0.56169414  0.05005252  0.56254607    -0.25900
N77         N  0.43001080  0.95348117  0.51887071    -0.26400
N78         N  0.59602377  0.04988074  0.53331017     0.00600
H79         H  0.54580217  0.09202050  0.62078466     0.06500
H80         H  0.66001027  0.09502495  0.45242824     0.06500
N81         N  0.47464681  0.05304918  0.39042974    -0.26500
N82         N  0.60293256  0.95208480  0.43168250    -0.26100
N83         N  0.46054764  0.05210025  0.55454696     0.01000
C84         C  0.42275013  0.90118291  0.37194138     0.42400
C85         C  0.56353327  0.91694838  0.59055604    -0.07300
N86         N  0.60432552  0.05082247  0.43288815    -0.26100
H87         H  0.65994716  0.90882866  0.44867517     0.06500
N88         N  0.40769041  0.92274316  0.40953628    -0.47300
H89         H  0.54058591  0.90924265  0.61843838     0.06500
C90         C  0.61067960  0.10482848  0.57816382     0.42200
C91         C  0.40086482  0.91862666  0.52360608    -0.06800
Co92       Co  0.51007696  0.00189644  0.55907845     0.73800
N93         N  0.62248607  0.91686480  0.54032563    -0.47000
C94         C  0.43048387  0.11207173  0.37719929     0.42500
N95         N  0.45341187  0.08514062  0.58425554    -0.47000
Co96       Co  0.60055502  0.00087071  0.48272675     0.73900
C97         C  0.63263251  0.08642491  0.42917104    -0.07300
C98         C  0.46554968  0.92217120  0.35800486    -0.06900
N99         N  0.43085082  0.05226773  0.52065016    -0.26400
N100        N  0.58092094  0.91908400  0.36799876    -0.47200
H101        H  0.49448454  0.09650254  0.33458127     0.06500
C102        C  0.56799609  0.08375884  0.59246500    -0.07300
Cl103      Cl  0.51705768  0.00223735  0.47592804    -0.50300
C104        C  0.60474126  0.89361899  0.57584006     0.42200
H105        H  0.37289013  0.09502167  0.50501343     0.06400
N106        N  0.62614636  0.08241771  0.54129002    -0.47000
C107        C  0.91011927  0.60497978  0.56353755     0.42100
N108        N  0.96617759  0.55997087  0.55308451     0.01000
C109        C  0.10913029  0.55507181  0.36587849    -0.06900
H110        H  0.93248090  0.53098069  0.33200581     0.06500
C111        C  0.93742638  0.39114971  0.42583397    -0.07300
Co112      Co  0.02100360  0.58683508  0.47190159     0.74200
N113        N  0.97504079  0.54830420  0.38979063    -0.26400
Co114      Co  0.02489226  0.49807899  0.39478459     0.74100
C115        C  0.91584631  0.40688323  0.38410918     0.42200
N116        N  0.96769555  0.42506164  0.53141278     0.00600
N117        N  0.97488695  0.44763583  0.39693780     0.00700
N118        N  0.10540438  0.61313160  0.41642795    -0.47300
H119        H  0.92851915  0.64787752  0.50054728     0.06400
N120        N  0.97365589  0.58194593  0.41948955     0.01000
N121        N  0.07509755  0.44860246  0.40290227     0.00700
C122        C  0.13473952  0.40762825  0.39547192     0.42300
N123        N  0.96532631  0.45921353  0.56040432    -0.25900
C124        C  0.10229124  0.61782477  0.53292141    -0.06800
N125        N  0.93096905  0.56772813  0.58026528    -0.47000
N126        N  0.11200525  0.44311289  0.37735031    -0.47200
C127        C  0.12224249  0.60211099  0.57559917     0.42100
N128        N  0.07294296  0.58265000  0.42385197     0.01000
N129        N  0.06473053  0.45926279  0.56670690    -0.25900
N130        N  0.96903977  0.58962702  0.51947366    -0.26400
N131        N  0.06661552  0.42566338  0.53709336     0.00600
H132        H  0.10569879  0.47637102  0.62551266     0.06500
H133        H  0.11635503  0.36356694  0.45751465     0.06500
N134        N  0.07420130  0.54868603  0.39458908    -0.26500
N135        N  0.97339464  0.41863529  0.43121888    -0.26100
N136        N  0.06566389  0.55948961  0.55905318     0.01000
C137        C  0.91680028  0.59394877  0.37570305     0.42400
C138        C  0.92890686  0.45304067  0.58746679    -0.10100
N139        N  0.07275139  0.41899979  0.43665356    -0.26100
H140        H  0.92713400  0.36427873  0.44881012     0.06500
N141        N  0.93913806  0.60998797  0.41240613    -0.47300
H142        H  0.91875792  0.47477877  0.61540049     0.06500
C143        C  0.12138053  0.41224444  0.58333133     0.42200
C144        C  0.93488088  0.61952786  0.52314760    -0.06800
Co145      Co  0.01529783  0.50963587  0.56095410     0.73800
N146        N  0.93485670  0.39475038  0.53745421    -0.47000
C147        C  0.12929170  0.59788200  0.38022258     0.42500
N148        N  0.09775887  0.56615988  0.59013523    -0.47000
Co149      Co  0.02016139  0.42101090  0.48405341     0.73900
C150        C  0.10878825  0.39109643  0.43431832    -0.07300
C151        C  0.94052378  0.55338514  0.36009753    -0.06900
N152        N  0.06774249  0.58899985  0.52517233    -0.26400
N153        N  0.94088354  0.44173028  0.36765169    -0.47200
H154        H  0.11802890  0.53343133  0.33745145     0.06500
C155        C  0.09826856  0.45382478  0.59740606    -0.07300
Cl156      Cl  0.02036576  0.50391363  0.47793789    -0.50300
C157        C  0.90872948  0.41053098  0.57171618     0.42200
H158        H  0.11218270  0.64599416  0.51134853     0.06400
N159        N  0.10024882  0.39698775  0.54552920    -0.47000
C160        C  0.74969677  0.33326129  0.30997955     0.02700
C161        C  0.73103443  0.29415085  0.32983200    -0.13400
C162        C  0.69266826  0.27310533  0.31037509     0.00200
C163        C  0.67188178  0.29279645  0.27207631    -0.11900
C164        C  0.68868376  0.33347370  0.25371713     0.02700
C165        C  0.72779235  0.35343208  0.27269881    -0.11400
H166        H  0.74710352  0.27949810  0.35969743     0.08300
H167        H  0.64291880  0.27611221  0.25615891     0.05900
H168        H  0.74152634  0.38441600  0.25816112     0.05700
C169        C  0.75575166  0.67811004  0.30178368     0.02700
C170        C  0.73339322  0.71402121  0.32373429    -0.13400
C171        C  0.69333045  0.73288712  0.30514577     0.00200
C172        C  0.67555813  0.71476509  0.26451734    -0.11900
C173        C  0.69716355  0.67813083  0.24290159     0.02700
C174        C  0.73696717  0.65987671  0.26199642    -0.11400
H175        H  0.74768614  0.72778818  0.35491962     0.08300
H176        H  0.64505020  0.72926335  0.24957302     0.05900
H177        H  0.75362147  0.63133726  0.24566466     0.05700
C178        C  0.70500716  0.31379018  0.71990189     0.02700
C179        C  0.68221304  0.27822995  0.69788037    -0.13400
C180        C  0.69988910  0.25936950  0.65778204     0.00200
C181        C  0.74014250  0.27718396  0.63883275    -0.11900
C182        C  0.76212245  0.31405004  0.65956080     0.02700
C183        C  0.74483446  0.33176598  0.70037608    -0.11400
H184        H  0.65020522  0.26558321  0.71156895     0.08300
H185        H  0.75370909  0.26315566  0.60749401     0.05900
H186        H  0.76201959  0.36015703  0.71647054     0.05700
C187        C  0.34639507  0.73842770  0.29613247     0.02700
C188        C  0.36529133  0.71880472  0.25696108    -0.13400
C189        C  0.34538877  0.68008910  0.23756264     0.00200
C190        C  0.30638439  0.66105082  0.25775852    -0.11900
C191        C  0.28769760  0.67999611  0.29749538     0.02700
C192        C  0.30730458  0.71927977  0.31589404    -0.11400
H193        H  0.39568106  0.73354211  0.24171904     0.08300
H194        H  0.29108699  0.63096715  0.24300496     0.05900
H195        H  0.29266628  0.73456400  0.34617532     0.05700
C196        C  0.33625979  0.74230896  0.65714344     0.02700
C197        C  0.29650996  0.72178963  0.64049337    -0.13400
C198        C  0.27600012  0.68578131  0.66417200     0.00200
C199        C  0.29682306  0.66902039  0.70387100    -0.11900
C200        C  0.33610658  0.69001129  0.72168295     0.02700
C201        C  0.35519015  0.72708259  0.69826333    -0.11400
H202        H  0.28147270  0.73394265  0.60899938     0.08300
H203        H  0.28254447  0.63946757  0.72064424     0.05900
H204        H  0.38549866  0.74367303  0.71154287     0.05700
C205        C  0.35271373  0.33330253  0.70210947     0.02700
C206        C  0.31482553  0.35480826  0.68235077    -0.13400
C207        C  0.29073852  0.33445657  0.64649235     0.00200
C208        C  0.30596176  0.29274886  0.62909380    -0.11900
C209        C  0.34546908  0.27234038  0.64667213     0.02700
C210        C  0.36779563  0.29184957  0.68413871    -0.11400
H211        H  0.30331644  0.38712434  0.69574554     0.08300
H212        H  0.28737807  0.27627627  0.60173954     0.05900
H213        H  0.39636400  0.27423057  0.69961407     0.05700
C214        C  0.69525239  0.67508613  0.70921829     0.02700
C215        C  0.67288666  0.71357562  0.69234238    -0.13400
C216        C  0.68856424  0.73458510  0.65237881     0.00200
C217        C  0.72487452  0.71524754  0.62806902    -0.11900
C218        C  0.74739217  0.67687902  0.64495713     0.02700
C219        C  0.73308678  0.65751142  0.68620465    -0.11400
H220        H  0.64401716  0.72759190  0.71076490     0.08300
H221        H  0.73592107  0.73038645  0.59620253     0.05900
H222        H  0.75095515  0.62843057  0.70015702     0.05700
C223        C  0.35875732  0.28064244  0.30953150     0.02700
C224        C  0.37532565  0.30153373  0.26986169    -0.13400
C225        C  0.35407037  0.34044331  0.25222753     0.00200
C226        C  0.31498494  0.35755962  0.27396928    -0.11900
C227        C  0.29706006  0.33575944  0.31254856     0.02700
C228        C  0.31921952  0.29761346  0.33036841    -0.11400
H229        H  0.40468087  0.28725545  0.25249578     0.08300
H230        H  0.29799110  0.38732968  0.26042986     0.05900
H231        H  0.30520376  0.28074541  0.36010141     0.05700
C232        C  0.16428542  0.39307986  0.60076462    -0.06500
C233        C  0.19708862  0.37932175  0.56875061    -0.17600
C234        C  0.23925968  0.36189905  0.58247074     0.10700
C235        C  0.24824530  0.35588473  0.62946077    -0.06400
C236        C  0.21529624  0.36981024  0.66150080    -0.17700
C237        C  0.17360085  0.38842590  0.64773905     0.10700
S238        S  0.28072246  0.35064396  0.53833289    -0.32600
S239        S  0.13321584  0.40330752  0.69173623    -0.32600
H240        H  0.09427911  0.38930913  0.66732968     0.28700
H241        H  0.31913126  0.36235196  0.56472665     0.28700
H242        H  0.19044325  0.38366104  0.53263086     0.19300
H243        H  0.22159323  0.36507069  0.69762336     0.19300
C244        C  0.23410907  0.66434770  0.64582750    -0.06500
C245        C  0.23354235  0.61708668  0.63961312    -0.17600
C246        C  0.19731605  0.59575915  0.61709930     0.10700
C247        C  0.16087151  0.62223495  0.60018430    -0.06400
C248        C  0.16068340  0.66917858  0.60747864    -0.17700
C249        C  0.19616582  0.69033741  0.63117545     0.10700
S250        S  0.20098143  0.53518370  0.60882900    -0.32600
S251        S  0.18996641  0.75012410  0.64306729    -0.32600
H252        H  0.21471091  0.74934640  0.68421950     0.28700
H253        H  0.18152402  0.53511817  0.56494801     0.28700
H254        H  0.26241033  0.59683714  0.65060745     0.19300
H255        H  0.13204986  0.68934150  0.59568713     0.19300
C256        C  0.24788573  0.65876574  0.32015988    -0.06500
C257        C  0.21054563  0.68623688  0.33237734    -0.17600
C258        C  0.17136133  0.66758662  0.35231845     0.10700
C259        C  0.16913094  0.62030779  0.35972016    -0.06400
C260        C  0.20624506  0.59300085  0.34748159    -0.17700
C261        C  0.24605201  0.61169121  0.32935265     0.10700
S262        S  0.12483661  0.70553092  0.36536257    -0.32600
S263        S  0.29393087  0.57384938  0.32165853    -0.32600
H264        H  0.32753267  0.60621132  0.33279058     0.28700
H265        H  0.09012843  0.67536592  0.35170898     0.28700
H266        H  0.21147240  0.72233839  0.32540801     0.19300
H267        H  0.20483831  0.55691734  0.35359175     0.19300
C268        C  0.17741400  0.38899376  0.37742180    -0.06500
C269        C  0.17760328  0.34392192  0.36244019    -0.17600
C270        C  0.21583278  0.32577399  0.34051013     0.10700
C271        C  0.25518779  0.35309427  0.33439460    -0.06400
C272        C  0.25527398  0.39784108  0.35066203    -0.17700
C273        C  0.21703818  0.41582866  0.37266028     0.10700
S274        S  0.21127231  0.26843669  0.31940784    -0.32600
S275        S  0.22168201  0.47226359  0.39583898    -0.32600
H276        H  0.19114380  0.46556347  0.43229896     0.28700
H277        H  0.23887692  0.27521243  0.28070822     0.28700
H278        H  0.14708539  0.32328568  0.36621949     0.19300
H279        H  0.28575186  0.41856627  0.34707318     0.19300
C280        C  0.86850451  0.62475008  0.58262876    -0.06500
C281        C  0.83223871  0.59539353  0.59252381    -0.17600
C282        C  0.79136394  0.61167467  0.61056836     0.10700
C283        C  0.78724678  0.65837904  0.62058037    -0.06400
C284        C  0.82327954  0.68798965  0.60961845    -0.17700
C285        C  0.86391900  0.67167773  0.59088369     0.10700
S286        S  0.74554224  0.57135184  0.61857119    -0.32600
S287        S  0.90936322  0.71198983  0.58121407    -0.32600
H288        H  0.94487600  0.68259884  0.59437581     0.28700
H289        H  0.70992482  0.60240764  0.61059098     0.28700
H290        H  0.83551653  0.55958200  0.58511752     0.19300
H291        H  0.82047022  0.72384028  0.61748110     0.19300
C292        C  0.87016432  0.38566322  0.59181273    -0.06500
C293        C  0.87581623  0.33950031  0.60219155    -0.17600
C294        C  0.84152777  0.31513358  0.62481681     0.10700
C295        C  0.80038754  0.33729623  0.63660303    -0.06400
C296        C  0.79442882  0.38311160  0.62500950    -0.17700
C297        C  0.82851748  0.40726361  0.60224786     0.10700
S298        S  0.85309283  0.25668122  0.63906229    -0.32600
S299        S  0.81564431  0.46459778  0.58526605    -0.32600
H300        H  0.84163400  0.46388526  0.54489621     0.28700
H301        H  0.82691571  0.25587334  0.67929066     0.28700
H302        H  0.90774484  0.32273910  0.59404262     0.19300
H303        H  0.76242140  0.39990972  0.63281678     0.19300
C304        C  0.79248493  0.35270864  0.32798476    -0.06500
C305        C  0.79360584  0.36644295  0.37371451    -0.17600
C306        C  0.83286055  0.38592972  0.39243102     0.10700
C307        C  0.87227189  0.39115733  0.36503593    -0.06400
C308        C  0.87099141  0.37826149  0.31909492    -0.17700
C309        C  0.83182115  0.35836068  0.30044483     0.10700
S310        S  0.82972003  0.40502367  0.45082721    -0.32600
S311        S  0.83512199  0.33878985  0.24220862    -0.32600
H312        H  0.80619450  0.30106999  0.24816502     0.28700
H313        H  0.85848339  0.44286909  0.44476923     0.28700
H314        H  0.76335522  0.36271320  0.39474273     0.19300
H315        H  0.90135256  0.38183218  0.29818704     0.19300
C316        C  0.79826326  0.65862239  0.32074372    -0.06500
C317        C  0.79832994  0.64397314  0.36631978    -0.17600
C318        C  0.83626063  0.62186120  0.38487694     0.10700
C319        C  0.87494452  0.61395719  0.35722907    -0.06400
C320        C  0.87505697  0.62846825  0.31179251    -0.17700
C321        C  0.83770685  0.65176341  0.29358625     0.10700
S322        S  0.83262933  0.60339793  0.44352311    -0.32600
S323        S  0.84369323  0.67401777  0.23650080    -0.32600
H324        H  0.81617284  0.71249649  0.24364372     0.28700
H325        H  0.85985150  0.56442693  0.43823398     0.28700
H326        H  0.76819759  0.64875297  0.38726144     0.19300
H327        H  0.90524987  0.62340891  0.29098289     0.19300
C328        C  0.67624866  0.22053478  0.63651231    -0.06500
C329        C  0.66627546  0.18269952  0.66395013    -0.17600
C330        C  0.64519455  0.14429114  0.64577335     0.10700
C331        C  0.63397946  0.14349112  0.59902474    -0.06400
C332        C  0.64404446  0.18102174  0.57144494    -0.17700
C333        C  0.66389737  0.22001449  0.58989137     0.10700
S334        S  0.63513204  0.09699686  0.68361001    -0.32600
S335        S  0.66969698  0.26865178  0.55289859    -0.32600
H336        H  0.66175043  0.30115986  0.58710236     0.28700
H337        H  0.64328426  0.06313020  0.65083654     0.28700
H338        H  0.67576448  0.18276787  0.69970499     0.19300
H339        H  0.63462333  0.18062980  0.53566864     0.19300
C340        C  0.39794207  0.14886394  0.59027209    -0.06500
C341        C  0.42432515  0.18847502  0.58852127    -0.17600
C342        C  0.40737420  0.22945869  0.60536491     0.10700
C343        C  0.36363519  0.23056904  0.62585496    -0.06400
C344        C  0.33726019  0.19080697  0.62765070    -0.17700
C345        C  0.35408966  0.14988348  0.61029520     0.10700
S346        S  0.44242812  0.27935249  0.59798260    -0.32600
S347        S  0.31863523  0.10003786  0.61579388    -0.32600
H348        H  0.35470187  0.06870533  0.61938103     0.28700
H349        H  0.40599136  0.31010557  0.59315645     0.28700
H350        H  0.45775953  0.18775738  0.57260307     0.19300
H351        H  0.30381109  0.19148804  0.64352069     0.19300
C352        C  0.38071509  0.23907037  0.32728621    -0.06500
C353        C  0.38927849  0.20341333  0.29674522    -0.17600
C354        C  0.40546213  0.16161346  0.31210199     0.10700
C355        C  0.41266136  0.15487971  0.35920062    -0.06400
C356        C  0.40508036  0.19060472  0.38973237    -0.17700
C357        C  0.39057737  0.23302158  0.37415240     0.10700
S358        S  0.41421455  0.11782686  0.27004088    -0.32600
S359        S  0.38789047  0.27846462  0.41529329    -0.32600
H360        H  0.39883615  0.31321622  0.38418254     0.28700
H361        H  0.39939432  0.08184841  0.29794839     0.28700
H362        H  0.38183111  0.20758136  0.26079214     0.19300
H363        H  0.41221748  0.18593410  0.42570348     0.19300
C364        C  0.67382937  0.23074194  0.33001373    -0.06500
C365        C  0.62675033  0.22877856  0.33958191    -0.17600
C366        C  0.60700435  0.18984931  0.35875879     0.10700
C367        C  0.63515803  0.15255169  0.36952401    -0.06400
C368        C  0.68213943  0.15461754  0.36071870    -0.17700
C369        C  0.70157477  0.19264812  0.33989416     0.10700
S370        S  0.54647183  0.18896829  0.37145086    -0.32600
S371        S  0.76117720  0.18899493  0.32438521    -0.32600
H372        H  0.75709161  0.21473444  0.28415005     0.28700
H373        H  0.53608922  0.23204040  0.35349535     0.28700
H374        H  0.60560614  0.25802980  0.33242486     0.19300
H375        H  0.70350541  0.12558668  0.36833260     0.19300
C376        C  0.39297287  0.85834716  0.58905199    -0.06500
C377        C  0.38528458  0.81841651  0.56429800    -0.17600
C378        C  0.36839763  0.77944001  0.58578683     0.10700
C379        C  0.35708271  0.78105261  0.63272750    -0.06400
C380        C  0.36440120  0.82130808  0.65715597    -0.17700
C381        C  0.38207404  0.85985868  0.63588978     0.10700
S382        S  0.36470556  0.72836708  0.55205230    -0.32600
S383        S  0.38808721  0.91041898  0.67000036    -0.32600
H384        H  0.37596634  0.94076980  0.63495374     0.28700
H385        H  0.37460821  0.69840677  0.58810087     0.28700
H386        H  0.39435400  0.81701263  0.52847705     0.19300
H387        H  0.35527630  0.82305126  0.69294193     0.19300
C388        C  0.62505435  0.85270550  0.59579619    -0.06500
C389        C  0.67212890  0.85283630  0.60458800    -0.17600
C390        C  0.69324670  0.81570563  0.62528268     0.10700
C391        C  0.66709218  0.77663904  0.63562328    -0.06400
C392        C  0.61986000  0.77674342  0.62732900    -0.17700
C393        C  0.59857239  0.81424747  0.60739304     0.10700
S394        S  0.75315058  0.82106537  0.63925747    -0.32600
S395        S  0.53822925  0.80966806  0.59528615    -0.32600
H396        H  0.54020304  0.83315195  0.55352089     0.28700
H397        H  0.75140398  0.79360722  0.67851747     0.28700
H398        H  0.69232711  0.88263333  0.59658236     0.19300
H399        H  0.59973661  0.74679679  0.63491031     0.19300
C400        C  0.63725213  0.85550029  0.36216953    -0.06500
C401        C  0.60774643  0.82023646  0.34934997    -0.17600
C402        C  0.62481040  0.77909170  0.33268191     0.10700
C403        C  0.67257589  0.77381473  0.32626597    -0.06400
C404        C  0.70183491  0.80967345  0.33850036    -0.17700
C405        C  0.68484855  0.85013480  0.35643699     0.10700
S406        S  0.58394356  0.73408591  0.32350615    -0.32600
S407        S  0.72573683  0.89416809  0.36931701    -0.32600
H408        H  0.69724927  0.93033626  0.35621517     0.28700
H409        H  0.61386032  0.69872363  0.33562498     0.28700
H410        H  0.57123712  0.82395734  0.35445454     0.19300
H411        H  0.73833932  0.80666057  0.33299746     0.19300
C412        C  0.36711224  0.77946027  0.31606843    -0.06500
C413        C  0.37213651  0.81791211  0.28822286    -0.17600
C414        C  0.38898233  0.85860541  0.30588189     0.10700
C415        C  0.40146233  0.86080088  0.35227698    -0.06400
C416        C  0.39615022  0.82265119  0.38025265    -0.17700
C417        C  0.37998840  0.78174354  0.36250939     0.10700
S418        S  0.39199226  0.90684178  0.26804499    -0.32600
S419        S  0.37885006  0.73339005  0.40034058    -0.32600
H420        H  0.38827461  0.70088390  0.36652143     0.28700
H421        H  0.38345856  0.93978740  0.30166065     0.28700
H422        H  0.36177733  0.81651991  0.25275171     0.19300
H423        H  0.40641453  0.82424401  0.41574930     0.19300
C424        C  0.66755928  0.35341723  0.21258001    -0.06500
C425        C  0.69577068  0.36205302  0.17486334    -0.17600
C426        C  0.67766701  0.37778176  0.13381717     0.10700
C427        C  0.63023318  0.38570290  0.13024504    -0.06400
C428        C  0.60184772  0.37722249  0.16787459    -0.17700
C429        C  0.62008517  0.36191316  0.20923387     0.10700
S430        S  0.71656206  0.38438194  0.08654100    -0.32600
S431        S  0.58145439  0.35572291  0.25681750    -0.32600
H432        H  0.61353912  0.36744408  0.29056386     0.28700
H433        H  0.68597642  0.36758029  0.05354823     0.28700
H434        H  0.73212566  0.35496939  0.17690081     0.19300
H435        H  0.56543784  0.38392540  0.16547300     0.19300
C436        C  0.67766432  0.65698194  0.20147161    -0.06500
C437        C  0.67287767  0.60952770  0.20098405    -0.17600
C438        C  0.65472345  0.58695472  0.16336129     0.10700
C439        C  0.64078650  0.61228988  0.12494106    -0.06400
C440        C  0.64460856  0.65973978  0.12556953    -0.17700
C441        C  0.66383050  0.68230021  0.16284227     0.10700
S442        S  0.64820058  0.52621662  0.16790536    -0.32600
S443        S  0.67225774  0.74273653  0.15741126    -0.32600
H444        H  0.71348993  0.74390061  0.18210009     0.28700
H445        H  0.60541301  0.52484056  0.14599348     0.28700
H446        H  0.68258403  0.58981524  0.23064872     0.19300
H447        H  0.63427239  0.67926721  0.09598836     0.19300
C448        C  0.36711720  0.65816333  0.19779424    -0.06500
C449        C  0.41367401  0.64676553  0.20078831    -0.17600
C450        C  0.43611522  0.62519817  0.16479462     0.10700
C451        C  0.41162142  0.61511895  0.12461051    -0.06400
C452        C  0.36487207  0.62514628  0.12203085    -0.17700
C453        C  0.34253819  0.64728574  0.15772374     0.10700
S454        S  0.49527298  0.60978013  0.17309172    -0.32600
S455        S  0.28359768  0.66294371  0.14868164    -0.32600
H456        H  0.28581098  0.70361877  0.17364962     0.28700
H457        H  0.49333278  0.56974745  0.14704618     0.28700
H458        H  0.43249637  0.65400623  0.23177078     0.19300
H459        H  0.34608077  0.61755955  0.09110582     0.19300
C460        C  0.37091969  0.36124177  0.20937138    -0.06500
C461        C  0.33944352  0.36960958  0.17412891    -0.17600
C462        C  0.35389342  0.38511928  0.13142837     0.10700
C463        C  0.40095402  0.39216440  0.12347775    -0.06400
C464        C  0.43240927  0.38414167  0.15858187    -0.17700
C465        C  0.41785562  0.37010410  0.20169731     0.10700
S466        S  0.31084036  0.39319219  0.08812046    -0.32600
S467        S  0.46054877  0.36685422  0.24594199    -0.32600
H468        H  0.43100498  0.37902205  0.28175907     0.28700
H469        H  0.33852959  0.37975960  0.05131594     0.28700
H470        H  0.30341811  0.36261890  0.17938953     0.19300
H471        H  0.46848176  0.39068534  0.15291955     0.19300
C472        C  0.64314331  0.60574217  0.82603538    -0.06500
C473        C  0.68232158  0.63278849  0.83034107    -0.17600
C474        C  0.70031718  0.65584754  0.79273715     0.10700
C475        C  0.67816560  0.65213495  0.75017323    -0.06400
C476        C  0.64001992  0.62376943  0.74554416    -0.17700
C477        C  0.62278007  0.59969490  0.78279238     0.10700
S478        S  0.75151502  0.68903668  0.80121806    -0.32600
S479        S  0.57692279  0.56015447  0.77148842    -0.32600
H480        H  0.57070099  0.54290774  0.81564190     0.28700
H481        H  0.74293863  0.72129825  0.76695019     0.28700
H482        H  0.69854021  0.63655399  0.86340394     0.19300
H483        H  0.62419139  0.61961917  0.71232905     0.19300
C484        C  0.63949621  0.37731216  0.83391362    -0.06500
C485        C  0.64559280  0.33017636  0.83385821    -0.17600
C486        C  0.66917465  0.30872579  0.79850901     0.10700
C487        C  0.68501698  0.33473389  0.76108850    -0.06400
C488        C  0.67903371  0.38198656  0.76146075    -0.17700
C489        C  0.65667542  0.40349243  0.79742608     0.10700
S490        S  0.67980973  0.24868837  0.80447621    -0.32600
S491        S  0.64928344  0.46404721  0.79348936    -0.32600
H492        H  0.60528292  0.46427479  0.81285931     0.28700
H493        H  0.72168184  0.24893592  0.78084029     0.28700
H494        H  0.63336935  0.31013540  0.86238335     0.19300
H495        H  0.69052788  0.40221830  0.73276749     0.19300
C496        C  0.40715409  0.38916646  0.82598312    -0.06500
C497        C  0.43727231  0.37573579  0.79134360    -0.17600
C498        C  0.42078642  0.35798607  0.75012780     0.10700
C499        C  0.37311419  0.35244886  0.74414888    -0.06400
C500        C  0.34327963  0.36529425  0.77939971    -0.17700
C501        C  0.35966383  0.38351145  0.82004276     0.10700
S502        S  0.46066320  0.34621625  0.70457135    -0.32600
S503        S  0.31816629  0.39712927  0.86345272    -0.32600
H504        H  0.34572709  0.38360406  0.90036199     0.28700
H505        H  0.50082090  0.35057086  0.73065261     0.28700
H506        H  0.47365812  0.38090092  0.79599347     0.19300
H507        H  0.30673849  0.36039109  0.77555110     0.19300
C508        C  0.40840211  0.62764949  0.83320355    -0.06500
C509        C  0.36083270  0.63303590  0.83594744    -0.17600
C510        C  0.33655953  0.65586901  0.80178329     0.10700
C511        C  0.35986186  0.67103026  0.76221971    -0.06400
C512        C  0.40756776  0.66600958  0.76002186    -0.17700
C513        C  0.43198705  0.64534678  0.79512506     0.10700
S514        S  0.27685424  0.66700371  0.81242071    -0.32600
S515        S  0.49280538  0.64074174  0.78765443    -0.32600
H516        H  0.49465237  0.59649277  0.80539542     0.28700
H517        H  0.27575231  0.70832321  0.78835565     0.28700
H518        H  0.34267243  0.62089077  0.86576745     0.19300
H519        H  0.42607832  0.67699848  0.72998305     0.19300
loop_ 
_geom_bond_atom_site_label_1 
_geom_bond_atom_site_label_2 
_geom_bond_distance 
_geom_bond_site_symmetry_2 
_ccdc_geom_bond_type 
C1           N19   1.349       .  A
C1           C38   1.457       .  S
C1          C508   1.473       .  S
N2           N19   1.324       .  A
N2           N24   1.318       .  A
N2          Co39   2.078       .  S
C3           N28   1.338       .  A
C3           C41   1.457       .  S
C3           H48   1.081       .  S
H4           C45   1.081       .  S
C5           N29   1.339       .  A
C5            C9   1.455       .  S
C5           H34   1.082       .  S
Co6          N24   2.070       .  S
Co6          N14   2.086       .  S
Co6          N46   2.082   1_556  S
Co6          N22   2.071   1_556  S
Co6         Cl50   2.443       .  S
N7           C45   1.339       .  A
N7           N14   1.321       .  A
N7           Co8   2.077       .  S
Co8          N11   2.071       .  S
Co8          N28   2.068   1_556  S
Co8          N15   2.080   1_556  S
Co8         Cl50   2.450       .  S
C9           N47   1.346       .  A
C9          C484   1.465       .  S
N10          N17   1.321       .  A
N10          N40   1.323       .  A
N10         Co43   2.083       .  S
N11          N29   1.318       .  A
N11          N47   1.322       .  A
N12          C41   1.347       .  A
N12          N22   1.322       .  A
H13          C38   1.081       .  S
N14          N35   1.324       .  A
N15          N33   1.320       .  A
N15          N20   1.322       .  A
C16          N20   1.347       .  A
C16          C44   1.456       .  S
C16         C427   1.468       .  S
N17          C32   1.336       .  A
N17         Co39   2.073       .  S
C18          N46   1.339       .  A
C18          C21   1.457       .  S
C18          H52   1.081       .  S
C21          N42   1.346       .  A
C21         C451   1.465       .  S
N22          N28   1.317       .  A
N23          C49   1.339       .  A
N23          N25   1.318       .  A
N23         Co39   2.074   1_554  S
N24          C38   1.337       .  A
N25          N53   1.323       .  A
N25         Co43   2.075   1_554  S
H26          C49   1.082       .  S
H27          C44   1.081       .  S
N29         Co43   2.076       .  S
N30          N42   1.322       .  A
N30          N46   1.321       .  A
N30         Co39   2.075   1_554  S
C31          N35   1.348       .  A
C31          C45   1.452       .  S
C31         C472   1.460       .  S
C32          C51   1.455       .  S
C32          H36   1.082       .  S
N33          C44   1.340       .  A
N33         Co43   2.080   1_554  S
C37          N53   1.348       .  A
C37          C49   1.456       .  S
C37         C463   1.466       .  S
Co39        Cl50   2.450       .  S
N40          C51   1.348       .  A
C41         C439   1.468       .  S
Co43        Cl50   2.446       .  S
C51         C496   1.465       .  S
C54          N72   1.347       .  A
C54          C91   1.456       .  S
C54         C376   1.466       .  S
N55          N72   1.322       .  A
N55          N77   1.320       .  A
N55         Co92   2.078   1_565  S
C56          N81   1.336       .  A
C56          C94   1.451       .  S
C56         H101   1.081       .  S
H57          C98   1.082       .  S
C58          N82   1.338       .  A
C58          C62   1.456       .  S
C58          H87   1.081       .  S
Co59         N77   2.078   1_545  S
Co59         N67   2.081   1_545  S
Co59         N99   2.082       .  S
Co59         N75   2.083       .  S
Co59       Cl103   2.447       .  S
N60          C98   1.338       .  A
N60          N67   1.320       .  A
N60         Co61   2.071   1_565  S
Co61         N64   2.084   1_545  S
Co61         N81   2.067       .  S
Co61         N68   2.077       .  S
Co61       Cl103   2.447       .  S
C62         N100   1.349       .  A
C62         C400   1.471       .  S
N63          N70   1.320       .  A
N63          N93   1.323       .  A
N63         Co96   2.081   1_565  S
N64          N82   1.320       .  A
N64         N100   1.325       .  A
N65          C94   1.349       .  A
N65          N75   1.324       .  A
H66          C91   1.082       .  S
N67          N88   1.323       .  A
N68          N86   1.319       .  A
N68          N73   1.323       .  A
C69          N73   1.346       .  A
C69          C97   1.455       .  S
C69         C367   1.466       .  S
N70          C85   1.336       .  A
N70         Co92   2.070   1_565  S
C71          N99   1.340       .  A
C71          C74   1.455       .  S
C71         H105   1.081       .  S
C74          N95   1.347       .  A
C74         C340   1.464       .  S
N75          N81   1.320       .  A
N76         C102   1.338       .  A
N76          N78   1.320       .  A
N76         Co92   2.073       .  S
N77          C91   1.341       .  A
N78         N106   1.322       .  A
N78         Co96   2.075       .  S
H79         C102   1.082       .  S
H80          C97   1.082       .  S
N82         Co96   2.077   1_565  S
N83          N95   1.324       .  A
N83          N99   1.320       .  A
N83         Co92   2.075       .  S
C84          N88   1.347       .  A
C84          C98   1.454       .  S
C84         C415   1.461       .  S
C85         C104   1.453       .  S
C85          H89   1.081       .  S
N86          C97   1.340       .  A
N86         Co96   2.076       .  S
C90         N106   1.346       .  A
C90         C102   1.455       .  S
C90         C331   1.461       .  S
Co92       Cl103   2.446       .  S
N93         C104   1.349       .  A
C94         C355   1.463       .  S
Co96       Cl103   2.450       .  S
C104        C388   1.466       .  S
C107        N125   1.348       .  A
C107        C144   1.452       .  S
C107        C280   1.461       .  S
N108        N125   1.322       .  A
N108        N130   1.319       .  A
N108       Co145   2.078   1_655  S
C109        N134   1.336       .  A
C109        C147   1.454       .  S
C109        H154   1.082       .  S
H110        C151   1.082       .  S
C111        N135   1.336       .  A
C111        C115   1.452       .  S
C111        H140   1.081       .  S
Co112       N130   2.064   1_455  S
Co112       N120   2.073   1_455  S
Co112       N152   2.076       .  S
Co112       N128   2.075       .  S
Co112      Cl156   2.449       .  S
N113        C151   1.341       .  A
N113        N120   1.321       .  A
N113       Co114   2.083   1_655  S
Co114       N117   2.085   1_455  S
Co114       N134   2.073       .  S
Co114       N121   2.083       .  S
Co114      Cl156   2.447       .  S
C115        N153   1.349       .  A
C115        C307   1.466       .  S
N116        N123   1.320       .  A
N116        N146   1.322       .  A
N116       Co149   2.072   1_655  S
N117        N135   1.319       .  A
N117        N153   1.325       .  A
N118        C147   1.348       .  A
N118        N128   1.324       .  A
H119        C144   1.082       .  S
N120        N141   1.321       .  A
N121        N139   1.320       .  A
N121        N126   1.324       .  A
C122        N126   1.348       .  A
C122        C150   1.452       .  S
C122        C268   1.463       .  S
N123        C138   1.340       .  A
N123       Co145   2.083   1_655  S
C124        N152   1.339       .  A
C124        C127   1.456       .  S
C124        H158   1.082       .  S
C127        N148   1.347       .  A
C127        C247   1.465       .  S
N128        N134   1.319       .  A
N129        C155   1.341       .  A
N129        N131   1.319       .  A
N129       Co145   2.080       .  S
N130        C144   1.337       .  A
N131        N159   1.320       .  A
N131       Co149   2.069       .  S
H132        C155   1.081       .  S
H133        C150   1.081       .  S
N135       Co149   2.067   1_655  S
N136        N148   1.323       .  A
N136        N152   1.321       .  A
N136       Co145   2.079       .  S
C137        N141   1.345       .  A
C137        C151   1.457       .  S
C137        C319   1.463       .  S
C138        C157   1.459       .  S
C138        H142   1.082       .  S
N139        C150   1.339       .  A
N139       Co149   2.073       .  S
C143        N159   1.346       .  A
C143        C155   1.460       .  S
C143        C232   1.468       .  S
Co145      Cl156   2.444       .  S
N146        C157   1.345       .  A
C147        C259   1.467       .  S
Co149      Cl156   2.449       .  S
C157        C292   1.467       .  S
C160        C304   1.473       .  S
C160        C161   1.401       .  A
C160        C165   1.399       .  A
C161        H166   1.083       .  S
C161        C162   1.403       .  A
C162        C364   1.480       .  S
C162        C163   1.402       .  A
C163        H167   1.084       .  S
C163        C164   1.402       .  A
C164        C424   1.477       .  S
C164        C165   1.401       .  A
C165        H168   1.084       .  S
C169        C316   1.478       .  S
C169        C170   1.401       .  A
C169        C174   1.397       .  A
C170        H175   1.084       .  S
C170        C171   1.407       .  A
C171        C403   1.486       .  S
C171        C172   1.405       .  A
C172        H176   1.082       .  S
C172        C173   1.403       .  A
C173        C436   1.480       .  S
C173        C174   1.399       .  A
C174        H177   1.084       .  S
C178        C487   1.477       .  S
C178        C179   1.399       .  A
C178        C183   1.401       .  A
C179        H184   1.084       .  S
C179        C180   1.400       .  A
C180        C328   1.475       .  S
C180        C181   1.403       .  A
C181        H185   1.083       .  S
C181        C182   1.401       .  A
C182        C295   1.473       .  S
C182        C183   1.400       .  A
C183        H186   1.084       .  S
C187        C412   1.473       .  S
C187        C188   1.400       .  A
C187        C192   1.399       .  A
C188        H193   1.085       .  S
C188        C189   1.401       .  A
C189        C448   1.477       .  S
C189        C190   1.401       .  A
C190        H194   1.083       .  S
C190        C191   1.403       .  A
C191        C256   1.478       .  S
C191        C192   1.400       .  A
C192        H195   1.084       .  S
C196        C379   1.477       .  S
C196        C197   1.398       .  A
C196        C201   1.400       .  A
C197        H202   1.083       .  S
C197        C198   1.401       .  A
C198        C244   1.479       .  S
C198        C199   1.403       .  A
C199        H203   1.083       .  S
C199        C200   1.405       .  A
C200        C511   1.486       .  S
C200        C201   1.405       .  A
C201        H204   1.084       .  S
C205        C499   1.481       .  S
C205        C206   1.402       .  A
C205        C210   1.402       .  A
C206        H211   1.084       .  S
C206        C207   1.400       .  A
C207        C235   1.481       .  S
C207        C208   1.404       .  A
C208        H212   1.084       .  S
C208        C209   1.401       .  A
C209        C343   1.474       .  S
C209        C210   1.401       .  A
C210        H213   1.083       .  S
C214        C475   1.465       .  S
C214        C215   1.400       .  A
C214        C219   1.396       .  A
C215        H220   1.084       .  S
C215        C216   1.401       .  A
C216        C391   1.473       .  S
C216        C217   1.401       .  A
C217        H221   1.084       .  S
C217        C218   1.399       .  A
C218        C283   1.472       .  S
C218        C219   1.400       .  A
C219        H222   1.084       .  S
C223        C352   1.478       .  S
C223        C224   1.401       .  A
C223        C228   1.400       .  A
C224        H229   1.083       .  S
C224        C225   1.403       .  A
C225        C460   1.481       .  S
C225        C226   1.403       .  A
C226        H230   1.084       .  S
C226        C227   1.401       .  A
C227        C271   1.474       .  S
C227        C228   1.399       .  A
C228        H231   1.083       .  S
C232        C233   1.402       .  A
C232        C237   1.410       .  A
C233        H242   1.084       .  S
C233        C234   1.395       .  A
C234        C235   1.413       .  A
C234        S238   1.804       .  S
C235        C236   1.407       .  A
C236        H243   1.084       .  S
C236        C237   1.397       .  A
C237        S239   1.803       .  S
S238        H241   1.407       .  S
S239        H240   1.406       .  S
C244        C245   1.405       .  A
C244        C249   1.415       .  A
C245        H254   1.083       .  S
C245        C246   1.397       .  A
C246        C247   1.411       .  A
C246        S250   1.805       .  S
C247        C248   1.400       .  A
C248        H255   1.084       .  S
C248        C249   1.395       .  A
C249        S251   1.805       .  S
S250        H253   1.407       .  S
S251        H252   1.407       .  S
C256        C257   1.406       .  A
C256        C261   1.414       .  A
C257        H266   1.083       .  S
C257        C258   1.398       .  A
C258        C259   1.411       .  A
C258        S262   1.803       .  S
C259        C260   1.399       .  A
C260        H267   1.079       .  S
C260        C261   1.392       .  A
C261        S263   1.805       .  S
S262        H265   1.407       .  S
S263        H264   1.407       .  S
C268        C269   1.399       .  A
C268        C273   1.409       .  A
C269        H278   1.085       .  S
C269        C270   1.397       .  A
C270        C271   1.415       .  A
C270        S274   1.804       .  S
C271        C272   1.402       .  A
C272        H279   1.085       .  S
C272        C273   1.396       .  A
C273        S275   1.802       .  S
S274        H277   1.406       .  S
S275        H276   1.406       .  S
C280        C281   1.398       .  A
C280        C285   1.410       .  A
C281        H290   1.082       .  S
C281        C282   1.393       .  A
C282        C283   1.413       .  A
C282        S286   1.805       .  S
C283        C284   1.404       .  A
C284        H291   1.085       .  S
C284        C285   1.395       .  A
C285        S287   1.803       .  S
S286        H289   1.406       .  S
S287        H288   1.406       .  S
C292        C293   1.403       .  A
C292        C297   1.408       .  A
C293        H302   1.083       .  S
C293        C294   1.399       .  A
C294        C295   1.412       .  A
C294        S298   1.804       .  S
C295        C296   1.403       .  A
C296        H303   1.084       .  S
C296        C297   1.394       .  A
C297        S299   1.801       .  S
S298        H301   1.406       .  S
S299        H300   1.406       .  S
C304        C305   1.401       .  A
C304        C309   1.415       .  A
C305        H314   1.083       .  S
C305        C306   1.395       .  A
C306        C307   1.413       .  A
C306        S310   1.805       .  S
C307        C308   1.400       .  A
C308        H315   1.084       .  S
C308        C309   1.398       .  A
C309        S311   1.805       .  S
S310        H313   1.407       .  S
S311        H312   1.407       .  S
C316        C317   1.404       .  A
C316        C321   1.416       .  A
C317        H326   1.083       .  S
C317        C318   1.397       .  A
C318        C319   1.411       .  A
C318        S322   1.806       .  S
C319        C320   1.398       .  A
C320        H327   1.084       .  S
C320        C321   1.396       .  A
C321        S323   1.805       .  S
S322        H325   1.407       .  S
S323        H324   1.407       .  S
C328        C329   1.404       .  A
C328        C333   1.414       .  A
C329        H338   1.084       .  S
C329        C330   1.394       .  A
C330        C331   1.409       .  A
C330        S334   1.804       .  S
C331        C332   1.400       .  A
C332        H339   1.084       .  S
C332        C333   1.396       .  A
C333        S335   1.804       .  S
S334        H337   1.406       .  S
S335        H336   1.407       .  S
C340        C341   1.399       .  A
C340        C345   1.410       .  A
C341        H350   1.083       .  S
C341        C342   1.396       .  A
C342        C343   1.413       .  A
C342        S346   1.804       .  S
C343        C344   1.403       .  A
C344        H351   1.083       .  S
C344        C345   1.399       .  A
C345        S347   1.804       .  S
S346        H349   1.406       .  S
S347        H348   1.406       .  S
C352        C353   1.404       .  A
C352        C357   1.415       .  A
C353        H362   1.083       .  S
C353        C354   1.394       .  A
C354        C355   1.410       .  A
C354        S358   1.804       .  S
C355        C356   1.400       .  A
C356        H363   1.084       .  S
C356        C357   1.397       .  A
C357        S359   1.805       .  S
S358        H361   1.406       .  S
S359        H360   1.407       .  S
C364        C365   1.406       .  A
C364        C369   1.415       .  A
C365        H374   1.082       .  S
C365        C366   1.401       .  A
C366        C367   1.409       .  A
C366        S370   1.809       .  S
C367        C368   1.399       .  A
C368        H375   1.083       .  S
C368        C369   1.396       .  A
C369        S371   1.804       .  S
S370        H373   1.407       .  S
S371        H372   1.407       .  S
C376        C377   1.401       .  A
C376        C381   1.410       .  A
C377        H386   1.084       .  S
C377        C378   1.399       .  A
C378        C379   1.416       .  A
C378        S382   1.805       .  S
C379        C380   1.402       .  A
C380        H387   1.084       .  S
C380        C381   1.394       .  A
C381        S383   1.803       .  S
S382        H385   1.407       .  S
S383        H384   1.407       .  S
C388        C389   1.400       .  A
C388        C393   1.413       .  A
C389        H398   1.083       .  S
C389        C390   1.395       .  A
C390        C391   1.414       .  A
C390        S394   1.806       .  S
C391        C392   1.402       .  A
C392        H399   1.083       .  S
C392        C393   1.396       .  A
C393        S395   1.805       .  S
S394        H397   1.407       .  S
S395        H396   1.407       .  S
C400        C401   1.401       .  A
C400        C405   1.411       .  A
C401        H410   1.084       .  S
C401        C402   1.400       .  A
C402        C403   1.418       .  A
C402        S406   1.804       .  S
C403        C404   1.406       .  A
C404        H411   1.083       .  S
C404        C405   1.395       .  A
C405        S407   1.803       .  S
S406        H409   1.406       .  S
S407        H408   1.406       .  S
C412        C413   1.403       .  A
C412        C417   1.414       .  A
C413        H422   1.084       .  S
C413        C414   1.396       .  A
C414        C415   1.410       .  A
C414        S418   1.804       .  S
C415        C416   1.399       .  A
C416        H423   1.084       .  S
C416        C417   1.395       .  A
C417        S419   1.805       .  S
S418        H421   1.406       .  S
S419        H420   1.407       .  S
C424        C425   1.402       .  A
C424        C429   1.414       .  A
C425        H434   1.085       .  S
C425        C426   1.394       .  A
C426        C427   1.410       .  A
C426        S430   1.803       .  S
C427        C428   1.402       .  A
C428        H435   1.085       .  S
C428        C429   1.399       .  A
C429        S431   1.804       .  S
S430        H433   1.407       .  S
S431        H432   1.406       .  S
C436        C437   1.405       .  A
C436        C441   1.415       .  A
C437        H446   1.083       .  S
C437        C438   1.393       .  A
C438        C439   1.411       .  A
C438        S442   1.804       .  S
C439        C440   1.403       .  A
C440        H447   1.083       .  S
C440        C441   1.397       .  A
C441        S443   1.804       .  S
S442        H445   1.407       .  S
S443        H444   1.407       .  S
C448        C449   1.405       .  A
C448        C453   1.414       .  A
C449        H458   1.083       .  S
C449        C450   1.396       .  A
C450        C451   1.410       .  A
C450        S454   1.805       .  S
C451        C452   1.401       .  A
C452        H459   1.083       .  S
C452        C453   1.396       .  A
C453        S455   1.804       .  S
S454        H457   1.407       .  S
S455        H456   1.406       .  S
C460        C461   1.405       .  A
C460        C465   1.415       .  A
C461        H470   1.084       .  S
C461        C462   1.397       .  A
C462        C463   1.411       .  A
C462        S466   1.804       .  S
C463        C464   1.400       .  A
C464        H471   1.085       .  S
C464        C465   1.396       .  A
C465        S467   1.803       .  S
S466        H469   1.406       .  S
S467        H468   1.407       .  S
C472        C473   1.400       .  A
C472        C477   1.412       .  A
C473        H482   1.085       .  S
C473        C474   1.397       .  A
C474        C475   1.410       .  A
C474        S478   1.804       .  S
C475        C476   1.400       .  A
C476        H483   1.085       .  S
C476        C477   1.395       .  A
C477        S479   1.806       .  S
S478        H481   1.405       .  S
S479        H480   1.402       .  S
C484        C485   1.400       .  A
C484        C489   1.410       .  A
C485        H494   1.084       .  S
C485        C486   1.397       .  A
C486        C487   1.415       .  A
C486        S490   1.805       .  S
C487        C488   1.403       .  A
C488        H495   1.084       .  S
C488        C489   1.394       .  A
C489        S491   1.801       .  S
S490        H493   1.407       .  S
S491        H492   1.406       .  S
C496        C497   1.402       .  A
C496        C501   1.409       .  A
C497        H506   1.083       .  S
C497        C498   1.402       .  A
C498        C499   1.414       .  A
C498        S502   1.807       .  S
C499        C500   1.405       .  A
C500        H507   1.084       .  S
C500        C501   1.392       .  A
C501        S503   1.804       .  S
S502        H505   1.407       .  S
S503        H504   1.407       .  S
C508        C509   1.402       .  A
C508        C513   1.411       .  A
C509        H518   1.083       .  S
C509        C510   1.400       .  A
C510        C511   1.417       .  A
C510        S514   1.804       .  S
C511        C512   1.404       .  A
C512        H519   1.083       .  S
C512        C513   1.392       .  A
C513        S515   1.797       .  S
S514        H517   1.407       .  S
S515        H516   1.404       .  S
