geometry optimzed in LAMMPS
_audit_creation_date              2020-12-01 
_audit_creation_method            'lammps2cif' 
_symmetry_space_group_name_H-M    'P1' 
_symmetry_Int_Tables_number       1 
_symmetry_cell_setting            triclinic 
loop_ 
_symmetry_equiv_pos_as_xyz 
  x,y,z 
_cell_length_a                    25.41896707 
_cell_length_b                    25.06719090650541 
_cell_length_c                    25.62765767420036 
_cell_angle_alpha                 91.41212848865668 
_cell_angle_beta                  87.55920469279408 
_cell_angle_gamma                 89.7978969606782 
loop_ 
_atom_site_label 
_atom_site_type_symbol 
_atom_site_fract_x 
_atom_site_fract_y 
_atom_site_fract_z 
_atom_site_charge 
O1          O  0.45867822  0.50789230  0.86515072    -0.80700
O2          O  0.56956852  0.56011314  0.05125303    -0.80800
O3          O  0.44684285  0.57866407  0.02950221    -0.80800
O4          O  0.57894872  0.57408644  0.93168567    -0.80700
O5          O  0.47265428  0.52511554  0.08807301    -0.80800
O6          O  0.56404936  0.51679024  0.86704181    -0.80700
O7          O  0.64609460  0.54489651  0.00878828    -0.80700
O8          O  0.43749615  0.57090357  0.92377615    -0.80800
C9          C  0.44039900  0.55421620  0.87670994     1.09000
C10         C  0.61981916  0.56816854  0.04602481     1.08800
C11         C  0.45082123  0.56842763  0.07692862     1.09000
C12         C  0.58088890  0.56213162  0.88306962     1.08900
O13         O  0.56831574  0.41460675  0.92126938    -0.80700
O14         O  0.48746753  0.42199143  0.03969803    -0.80800
O15         O  0.39689496  0.46453812  0.93216908    -0.80700
O16         O  0.60115007  0.44924943  0.02840013    -0.80700
O17         O  0.55834031  0.46851976  0.10275918    -0.80800
O18         O  0.46285074  0.40929534  0.92283403    -0.80700
O19         O  0.62912747  0.47380539  0.92648550    -0.80700
O20         O  0.41236740  0.46555899  0.03713307    -0.80800
Co21       Co  0.51332736  0.46282184  0.89821680     1.51500
Co22       Co  0.52772232  0.48898476  0.04113535     1.51700
Co23       Co  0.42879676  0.51974320  0.98048476     1.51600
Co24       Co  0.58422319  0.51471975  0.98104538     1.51500
O25         O  0.50701783  0.49928968  0.96838949    -1.42700
C26         C  0.61445713  0.42878560  0.90943284     1.08900
C27         C  0.43842751  0.42434230  0.04985014     1.09000
C28         C  0.41489974  0.41891478  0.91786494     1.08900
C29         C  0.59472224  0.44286908  0.07828712     1.08900
O30         O  0.61966432  0.96455071  0.43011900    -0.80700
O31         O  0.60875932  0.08278739  0.51858657    -0.80800
O32         O  0.58402823  0.07594346  0.40470162    -0.80800
O33         O  0.56679483  0.95937925  0.60105549    -0.80700
O34         O  0.56407491  0.14950287  0.45042973    -0.80800
O35         O  0.62463071  0.95620339  0.53590007    -0.80700
O36         O  0.56392161  0.06893439  0.59277754    -0.80700
O37         O  0.56152581  0.97135110  0.37240242    -0.80800
C38         C  0.60468350  0.95147302  0.38553303     1.09000
C39         C  0.60381005  0.08848622  0.56782235     1.08800
C40         C  0.58992531  0.12685201  0.41283154     1.09000
C41         C  0.61167562  0.94470089  0.58227197     1.08900
O42         O  0.52811977  0.89412840  0.53681571    -0.80700
O43         O  0.47443651  0.09359620  0.43881588    -0.80800
O44         O  0.46290977  0.97116540  0.42689990    -0.80700
O45         O  0.45542899  0.05753339  0.55598675    -0.80700
O46         O  0.50539260  0.12424108  0.53663077    -0.80800
O47         O  0.52055259  0.90573954  0.43468698    -0.80700
O48         O  0.46446256  0.95088054  0.55929381    -0.80700
O49         O  0.48988826  0.05388653  0.36189384    -0.80800
Co50       Co  0.57319282  0.93448597  0.48464200     1.51500
Co51       Co  0.54431513  0.08318899  0.47870008     1.51700
Co52       Co  0.52076823  0.02370109  0.42084225     1.51600
Co53       Co  0.51320665  0.00966194  0.57249829     1.51500
O54         O  0.53701566  0.00568745  0.49533798    -1.42700
C55         C  0.48096273  0.90350155  0.55339078     1.08900
C56         C  0.46465115  0.08876376  0.38962738     1.09000
C57         C  0.47515648  0.92189398  0.42264746     1.08900
C58         C  0.46403853  0.10656185  0.55899476     1.08900
O59         O  0.96439347  0.42100833  0.41195670    -0.80700
O60         O  0.15401625  0.47368740  0.50576219    -0.80800
O61         O  0.08351303  0.48349993  0.36470642    -0.80800
O62         O  0.97837232  0.47863056  0.58117532    -0.80700
O63         O  0.08964522  0.43253816  0.43307995    -0.80800
O64         O  0.96715846  0.42046133  0.51895519    -0.80700
O65         O  0.08117614  0.45260725  0.54926710    -0.80700
O66         O  0.97663738  0.48240880  0.35304401    -0.80800
C67         C  0.96074138  0.43625229  0.36567848     1.09000
C68         C  0.13165188  0.44672650  0.54087413     1.08800
C69         C  0.10040574  0.44108274  0.38546363     1.09000
C70         C  0.96044190  0.43407277  0.56642756     1.08900
O71         O  0.91543127  0.52605793  0.52316392    -0.80700
O72         O  0.13410515  0.53671395  0.42821715    -0.80800
O73         O  0.96585638  0.58514330  0.40400793    -0.80700
O74         O  0.06049073  0.54615257  0.60134092    -0.80700
O75         O  0.10005181  0.56471492  0.52574399    -0.80800
O76         O  0.90775561  0.52191339  0.41855116    -0.80700
O77         O  0.98226494  0.58040182  0.53741585    -0.80700
O78         O  0.07183800  0.59211237  0.41205380    -0.80800
Co79       Co  0.94339950  0.47292051  0.46814161     1.51500
Co80       Co  0.09001549  0.49585487  0.47951821     1.51700
Co81       Co  0.02437441  0.53494999  0.38839572     1.51600
Co82       Co  0.03173246  0.51942124  0.53824436     1.51500
O83         O  0.01530070  0.50674196  0.46228150    -1.42700
C84         C  0.93321428  0.57065902  0.54019012     1.08900
C85         C  0.12019055  0.58177894  0.41295973     1.09000
C86         C  0.91897739  0.56882868  0.40350201     1.08900
C87         C  0.09646218  0.57056139  0.57594409     1.08900
C88         C  0.79713289  0.32146554  0.26375252     0.02500
C89         C  0.77273895  0.28359189  0.29658410    -0.13600
C90         C  0.72451073  0.26043890  0.28385486     0.00000
C91         C  0.70055680  0.27548410  0.23827156    -0.12100
C92         C  0.72377622  0.31376005  0.20605044     0.02500
C93         C  0.77349164  0.33392761  0.21696281    -0.11600
H94         H  0.78996662  0.27380358  0.33311923     0.08100
H95         H  0.66138489  0.26116331  0.23043716     0.05700
H96         H  0.79141748  0.36287865  0.19116397     0.05500
C97         C  0.76046063  0.68684899  0.29641476     0.02500
C98         C  0.73431798  0.73163310  0.31850597    -0.13600
C99         C  0.69014443  0.75287715  0.29502365     0.00000
C100        C  0.67225796  0.72805526  0.24915843    -0.12100
C101        C  0.70132676  0.68644610  0.22303235     0.02500
C102        C  0.74654859  0.66745977  0.24717402    -0.11600
H103        H  0.74776470  0.74916535  0.35460192     0.08100
H104        H  0.63495780  0.74083140  0.23514319     0.05700
H105        H  0.77090521  0.63622211  0.22897549     0.05500
C106        C  0.73514801  0.30599858  0.75073356     0.02500
C107        C  0.78255889  0.32685962  0.73013025    -0.13600
C108        C  0.80451894  0.30885477  0.68130501     0.00000
C109        C  0.77856864  0.26777526  0.65407923    -0.12100
C110        C  0.73194976  0.24497967  0.67491172     0.02500
C111        C  0.71109365  0.26396550  0.72352227    -0.11600
H112        H  0.80045777  0.35989923  0.75063823     0.08100
H113        H  0.79319051  0.25492746  0.61559389     0.05700
H114        H  0.67409333  0.24812037  0.73882557     0.05500
C115        C  0.35038101  0.77147460  0.30762893     0.02500
C116        C  0.30331325  0.75283995  0.33073055    -0.13600
C117        C  0.27820867  0.70843301  0.30928718     0.00000
C118        C  0.29975666  0.68309772  0.26390105    -0.12100
C119        C  0.34817387  0.69977959  0.24161646     0.02500
C120        C  0.37290216  0.74483582  0.26312575    -0.11600
H121        H  0.28799996  0.77080784  0.36722789     0.08100
H122        H  0.28086132  0.64778858  0.24829119     0.05700
H123        H  0.41112453  0.75704809  0.24741162     0.05500
C124        C  0.34592869  0.68158622  0.72019499     0.02500
C125        C  0.37517644  0.71709642  0.68985047    -0.13600
C126        C  0.35658227  0.73393998  0.64223061     0.00000
C127        C  0.30818874  0.71442667  0.62511357    -0.12100
C128        C  0.27638041  0.68134097  0.65709542     0.02500
C129        C  0.29573133  0.66650414  0.70547619    -0.11600
H130        H  0.41322380  0.73022549  0.70262984     0.08100
H131        H  0.29666616  0.72393476  0.58632205     0.05700
H132        H  0.27319543  0.64067719  0.73113262     0.05500
C133        C  0.30962657  0.30862667  0.75273302     0.02500
C134        C  0.27533342  0.33968737  0.72339779    -0.13600
C135        C  0.26018120  0.32203591  0.67369742     0.00000
C136        C  0.28358619  0.27638854  0.65062354    -0.12100
C137        C  0.32147041  0.24830101  0.67648193     0.02500
C138        C  0.33044509  0.26116285  0.72876904    -0.11600
H139        H  0.26262681  0.37889961  0.73711863     0.08100
H140        H  0.27540235  0.26510797  0.61065657     0.05700
H141        H  0.35692970  0.23570214  0.74878674     0.05500
C142        C  0.69973445  0.68330037  0.72664627     0.02500
C143        C  0.74562630  0.66031762  0.70278924    -0.13600
C144        C  0.77544890  0.68833544  0.66508019     0.00000
C145        C  0.76050065  0.74011461  0.65293188    -0.12100
C146        C  0.71197115  0.76147749  0.67177622     0.02500
C147        C  0.68255208  0.73321210  0.71000436    -0.11600
H148        H  0.75730333  0.62025886  0.71247459     0.08100
H149        H  0.78535819  0.76222464  0.62590788     0.05700
H150        H  0.64505115  0.74866813  0.72542693     0.05500
C151        C  0.33793560  0.24593757  0.28737092     0.02500
C152        C  0.35523518  0.25753775  0.23592918    -0.13600
C153        C  0.33283731  0.29987067  0.20883566     0.00000
C154        C  0.29068045  0.32842803  0.23353122    -0.12100
C155        C  0.27233881  0.31769575  0.28465068     0.02500
C156        C  0.29601447  0.27577694  0.31101154    -0.11600
H157        H  0.38763057  0.23464117  0.21789653     0.08100
H158        H  0.27294914  0.36069677  0.21352505     0.05700
H159        H  0.28263394  0.26686238  0.35049397     0.05500
C160        C  0.14099330  0.38816656  0.61768637    -0.09700
C161        C  0.16355459  0.41035772  0.57201834     0.06400
C162        C  0.21806426  0.40175884  0.56017291    -0.03500
C163        C  0.24855638  0.37476958  0.59500343    -0.08000
C164        C  0.22640994  0.35464209  0.64133236     0.05600
C165        C  0.17205429  0.36084109  0.65239370    -0.03000
Br166      Br  0.13868766  0.33180521  0.71380976    -0.02700
H167        H  0.09943349  0.39372656  0.62752076     0.09500
H168        H  0.29010831  0.36882454  0.58549892     0.07500
Br169      Br  0.25469092  0.42342574  0.49686474    -0.03100
C170        C  0.21433496  0.60427086  0.65368444    -0.09700
C171        C  0.22646287  0.65665308  0.63859070     0.06400
C172        C  0.19058806  0.68282808  0.60663828    -0.03500
C173        C  0.14754650  0.65475207  0.58703915    -0.08000
C174        C  0.13628973  0.60263077  0.60264389     0.05600
C175        C  0.16874180  0.57872257  0.63848010    -0.03000
Br176      Br  0.15421932  0.51039887  0.66735695    -0.02700
H177        H  0.24061675  0.58201033  0.67719051     0.09500
H178        H  0.12213762  0.67403060  0.56025491     0.07500
Br179      Br  0.19446590  0.75744869  0.59172206    -0.03100
C180        C  0.14581146  0.65097580  0.34949372    -0.09700
C181        C  0.15936479  0.61961447  0.39170137     0.06400
C182        C  0.21113654  0.62206550  0.40946819    -0.03500
C183        C  0.24862425  0.65344045  0.38337630    -0.08000
C184        C  0.23562785  0.68215475  0.33943708     0.05600
C185        C  0.18365594  0.68166837  0.32303145    -0.03000
Br186      Br  0.16323172  0.72116964  0.26400555    -0.02700
H187        H  0.10622608  0.64971444  0.33541591     0.09500
H188        H  0.28866329  0.65405450  0.39634369     0.07500
Br189      Br  0.23312785  0.58413185  0.46909640    -0.03100
C190        C  0.18982974  0.32432493  0.34182258    -0.09700
C191        C  0.22811549  0.34995520  0.31013484     0.06400
C192        C  0.22311559  0.40583383  0.30394500    -0.03500
C193        C  0.17877411  0.43307823  0.32520462    -0.08000
C194        C  0.14094053  0.40743257  0.35709581     0.05600
C195        C  0.14811712  0.35277072  0.36699028    -0.03000
Br196      Br  0.10429490  0.31480569  0.41613614    -0.02700
H197        H  0.19270322  0.28187346  0.34804053     0.09500
H198        H  0.17609237  0.47579246  0.32011144     0.07500
Br199      Br  0.27818861  0.44974803  0.27440994    -0.03100
C200        C  0.87015727  0.66896730  0.64090540    -0.09700
C201        C  0.81674907  0.66107654  0.63173406     0.06400
C202        C  0.80286494  0.62970804  0.58822931    -0.03500
C203        C  0.84180109  0.60343317  0.55719296    -0.08000
C204        C  0.89540127  0.60819093  0.56796357     0.05600
C205        C  0.90956989  0.64324694  0.60930577    -0.03000
Br206      Br  0.98116515  0.65634785  0.62675483    -0.02700
H207        H  0.88118743  0.69474527  0.67314094     0.09500
H208        H  0.82984637  0.57805511  0.52500638     0.07500
Br209      Br  0.73106860  0.62193862  0.56915358    -0.03100
C210        C  0.92667264  0.34582309  0.59637368    -0.09700
C211        C  0.92594986  0.40178001  0.60160928     0.06400
C212        C  0.88804340  0.42594431  0.63658199    -0.03500
C213        C  0.84964392  0.39489077  0.66162453    -0.08000
C214        C  0.84922407  0.33892909  0.65579222     0.05600
C215        C  0.89003893  0.31432105  0.62426847    -0.03000
Br216      Br  0.90054896  0.23840068  0.62011109    -0.02700
H217        H  0.95624576  0.32642614  0.57069469     0.09500
H218        H  0.81886997  0.41540625  0.68478911     0.07500
Br219      Br  0.88338705  0.50139864  0.65036205    -0.03100
C220        C  0.88895938  0.43395152  0.30393424    -0.09700
C221        C  0.92728690  0.40565509  0.32987418     0.06400
C222        C  0.92601390  0.34951465  0.32808849    -0.03500
C223        C  0.88507552  0.32287505  0.30362803    -0.08000
C224        C  0.84419696  0.35122590  0.28129016     0.05600
C225        C  0.84723683  0.40770225  0.28062647    -0.03000
Br226      Br  0.79301758  0.45290048  0.25549943    -0.02700
H227        H  0.88886658  0.47720072  0.30555925     0.09500
H228        H  0.88424644  0.27967309  0.30361155     0.07500
Br229      Br  0.97887831  0.30730306  0.35857201    -0.03100
C230        C  0.84637007  0.68355838  0.34044284    -0.09700
C231        C  0.80013025  0.65790982  0.32599176     0.06400
C232        C  0.79175397  0.60464104  0.34051173    -0.03500
C233        C  0.83009465  0.57743229  0.36710078    -0.08000
C234        C  0.87762203  0.60208102  0.38008114     0.05600
C235        C  0.88509773  0.65637919  0.36700205    -0.03000
Br236      Br  0.94648143  0.69676654  0.38390158    -0.02700
H237        H  0.85275945  0.72478756  0.33022865     0.09500
H238        H  0.82281046  0.53621001  0.37675582     0.07500
Br239      Br  0.72760682  0.56757474  0.32670769    -0.03100
C240        C  0.68553469  0.15735695  0.67153868    -0.09700
C241        C  0.70287239  0.20315773  0.64542073     0.06400
C242        C  0.68882830  0.20946045  0.59314937    -0.03500
C243        C  0.65930185  0.17002957  0.56818102    -0.08000
C244        C  0.64070975  0.12491881  0.59477759     0.05600
C245        C  0.65412642  0.11909074  0.64718069    -0.03000
Br246      Br  0.63102788  0.06016699  0.68792068    -0.02700
H247        H  0.69560030  0.15183144  0.71170786     0.09500
H248        H  0.64815008  0.17638777  0.52848201     0.07500
Br249      Br  0.70250304  0.27370064  0.55561364    -0.03100
C250        C  0.36278046  0.15876428  0.66141323    -0.09700
C251        C  0.35749732  0.21169076  0.64630250     0.06400
C252        C  0.38909540  0.23029131  0.60388661    -0.03500
C253        C  0.42308979  0.19533555  0.57580080    -0.08000
C254        C  0.42742415  0.14195931  0.58982619     0.05600
C255        C  0.39774418  0.12395162  0.63401412    -0.03000
Br256      Br  0.40607875  0.05410081  0.66200738    -0.02700
H257        H  0.34011077  0.14469781  0.69507344     0.09500
H258        H  0.44660194  0.21013913  0.54301638     0.07500
Br259      Br  0.39091418  0.30392390  0.58487605    -0.03100
C260        C  0.41691562  0.17590387  0.38972479    -0.09700
C261        C  0.42592835  0.12521623  0.36613402     0.06400
C262        C  0.40175722  0.11333196  0.31848700    -0.03500
C263        C  0.37223457  0.15256887  0.29438233    -0.08000
C264        C  0.36548217  0.20403523  0.31678954     0.05600
C265        C  0.38755502  0.21510869  0.36558772    -0.03000
Br266      Br  0.38387247  0.28454816  0.39903580    -0.02700
H267        H  0.43512586  0.18626144  0.42604199     0.09500
H268        H  0.35480053  0.14296026  0.25750028     0.07500
Br269      Br  0.40622373  0.04417577  0.28462759    -0.03100
C270        C  0.64467745  0.20835943  0.40033037    -0.09700
C271        C  0.62797906  0.15852307  0.38069171     0.06400
C272        C  0.64567956  0.14215216  0.32978402    -0.03500
C273        C  0.67974224  0.17452161  0.30042773    -0.08000
C274        C  0.69556485  0.22441708  0.31978646     0.05600
C275        C  0.67733559  0.24154163  0.37015656    -0.03000
Br276      Br  0.69066178  0.31202250  0.39737040    -0.02700
H277        H  0.63086066  0.22259903  0.43875377     0.09500
H278        H  0.69202383  0.16178986  0.26104658     0.07500
Br279      Br  0.62011279  0.07993196  0.29479814    -0.03100
C280        C  0.36255157  0.82146244  0.59930188    -0.09700
C281        C  0.38716979  0.77357221  0.61180493     0.06400
C282        C  0.44147682  0.76697579  0.59982281    -0.03500
C283        C  0.47074073  0.80939972  0.57984461    -0.08000
C284        C  0.44685200  0.85861545  0.57005258     0.05600
C285        C  0.39159156  0.86374637  0.57832816    -0.03000
Br286      Br  0.35260690  0.92662218  0.56202809    -0.02700
H287        H  0.32068340  0.82673589  0.60767149     0.09500
H288        H  0.51275478  0.80390768  0.57276294     0.07500
Br289      Br  0.47773997  0.70065970  0.60864464    -0.03100
C290        C  0.67444723  0.86909862  0.57662371    -0.09700
C291        C  0.64281924  0.90362796  0.60870758     0.06400
C292        C  0.63548795  0.89152374  0.66217245    -0.03500
C293        C  0.66111479  0.84735230  0.68222762    -0.08000
C294        C  0.69063581  0.81141806  0.64953279     0.05600
C295        C  0.69595445  0.82246658  0.59554873    -0.03000
Br296      Br  0.72386620  0.77290082  0.54274649    -0.02700
H297        H  0.67868831  0.87560381  0.53501989     0.09500
H298        H  0.65602178  0.84000139  0.72357172     0.07500
Br299      Br  0.58828594  0.93014814  0.70984054    -0.03100
C300        C  0.63380988  0.85753935  0.39221617    -0.09700
C301        C  0.62568419  0.90129334  0.36001548     0.06400
C302        C  0.63361105  0.89362687  0.30553808    -0.03500
C303        C  0.65401843  0.84498074  0.28503174    -0.08000
C304        C  0.66389368  0.80202882  0.31759864     0.05600
C305        C  0.65081908  0.80799235  0.37143115    -0.03000
Br306      Br  0.64997855  0.74858130  0.41739105    -0.02700
H307        H  0.62471676  0.86117588  0.43386705     0.09500
H308        H  0.66258370  0.84083607  0.24334190     0.07500
Br309      Br  0.61770279  0.94738943  0.25709292    -0.03100
C310        C  0.40097612  0.90182858  0.36442715    -0.09700
C311        C  0.43957485  0.88312021  0.39743439     0.06400
C312        C  0.44712018  0.82720354  0.40087005    -0.03500
C313        C  0.41800274  0.79216116  0.37057447    -0.08000
C314        C  0.38099980  0.81106729  0.33672590     0.05600
C315        C  0.37181872  0.86622712  0.33417193    -0.03000
Br316      Br  0.32109164  0.89435352  0.28880258    -0.02700
H317        H  0.39456194  0.94427139  0.36076835     0.09500
H318        H  0.42410174  0.74954059  0.37357462     0.07500
Br319      Br  0.49561751  0.79441075  0.44599382    -0.03100
C320        C  0.62338485  0.41146795  0.16293844    -0.09700
C321        C  0.62766173  0.40625945  0.10813220     0.06400
C322        C  0.66334612  0.36794169  0.08532571    -0.03500
C323        C  0.69457925  0.33739621  0.11741570    -0.08000
C324        C  0.69008729  0.34382711  0.17188455     0.05600
C325        C  0.65387572  0.38093545  0.19452542    -0.03000
Br326      Br  0.64578593  0.39333781  0.26877885    -0.02700
H327        H  0.59670185  0.44040062  0.18189826     0.09500
H328        H  0.72226277  0.30852072  0.09992558     0.07500
Br329      Br  0.67052349  0.35370870  0.01169169    -0.03100
C330        C  0.69665813  0.60520256  0.16362903    -0.09700
C331        C  0.68302164  0.65929187  0.17364558     0.06400
C332        C  0.65262320  0.68483399  0.13588525    -0.03500
C333        C  0.63210028  0.65485813  0.09432214    -0.08000
C334        C  0.64620057  0.60125322  0.08548385     0.05600
C335        C  0.68154391  0.57772485  0.11879387    -0.03000
Br336      Br  0.71091296  0.50796369  0.10542027    -0.02700
H337        H  0.71905504  0.58295136  0.19066687     0.09500
H338        H  0.60638494  0.67396277  0.06769058     0.07500
Br339      Br  0.64196152  0.76065670  0.13368643    -0.03100
C340        C  0.39046963  0.68936107  0.15200926    -0.09700
C341        C  0.37548920  0.66662616  0.19984303     0.06400
C342        C  0.38766537  0.61248386  0.20755760    -0.03500
C343        C  0.41294920  0.58198817  0.16744024    -0.08000
C344        C  0.42685656  0.60408723  0.11890313     0.05600
C345        C  0.41577278  0.65877707  0.11164771    -0.03000
Br346      Br  0.43575508  0.69501425  0.04873075    -0.02700
H347        H  0.38210231  0.73109783  0.14590144     0.09500
H348        H  0.42122527  0.54035840  0.17422576     0.07500
Br349      Br  0.37309954  0.57843596  0.27297158    -0.03100
C350        C  0.35702267  0.37830423  0.08389448    -0.09700
C351        C  0.41222711  0.38208696  0.08189818     0.06400
C352        C  0.44042981  0.34830963  0.11450197    -0.03500
C353        C  0.41377828  0.32013643  0.15383637    -0.08000
C354        C  0.35856109  0.32041659  0.15935164     0.05600
C355        C  0.33034439  0.34611732  0.12044755    -0.03000
Br356      Br  0.25622411  0.33601417  0.11227905    -0.02700
H357        H  0.33435625  0.40056275  0.05688796     0.09500
H358        H  0.43709337  0.29960411  0.18148431     0.07500
Br359      Br  0.51510168  0.33769464  0.10935160    -0.03100
C360        C  0.61197179  0.57907471  0.79122028    -0.09700
C361        C  0.60778802  0.59749493  0.84375510     0.06400
C362        C  0.63290928  0.64628954  0.85666392    -0.03500
C363        C  0.66204950  0.67385046  0.81795905    -0.08000
C364        C  0.66752034  0.65382481  0.76629771     0.05600
C365        C  0.64141090  0.60636733  0.75307112    -0.03000
Br366      Br  0.64350662  0.57758138  0.68297350    -0.02700
H367        H  0.59298366  0.54236434  0.77943753     0.09500
H368        H  0.68139884  0.71078649  0.82846978     0.07500
Br369      Br  0.63030258  0.67779948  0.92584715    -0.03100
C370        C  0.69879396  0.38383382  0.87793952    -0.09700
C371        C  0.64615170  0.39725096  0.86979038     0.06400
C372        C  0.62353761  0.37990390  0.82297738    -0.03500
C373        C  0.65305046  0.34952560  0.78597944    -0.08000
C374        C  0.70531935  0.33488738  0.79421044     0.05600
C375        C  0.72804846  0.35185458  0.84122753    -0.03000
Br376      Br  0.79715483  0.32959166  0.85907676    -0.02700
H377        H  0.71685399  0.39715946  0.91341710     0.09500
H378        H  0.63524982  0.33850281  0.74961451     0.07500
Br379      Br  0.55382242  0.39995226  0.80455728    -0.03100
C380        C  0.38205675  0.31417835  0.81686315    -0.09700
C381        C  0.33085932  0.32929940  0.80354591     0.06400
C382        C  0.30327392  0.36579952  0.83815888    -0.03500
C383        C  0.33018087  0.39309563  0.87744703    -0.08000
C384        C  0.38291177  0.38096536  0.88692699     0.05600
C385        C  0.40640683  0.33673890  0.85972996    -0.03000
Br386      Br  0.47144860  0.30389856  0.87821179    -0.02700
H387        H  0.40515545  0.28565032  0.79341047     0.09500
H388        H  0.30979950  0.42428276  0.90037858     0.07500
Br389      Br  0.22850202  0.37718310  0.83778438    -0.03100
C390        C  0.39107734  0.60059205  0.74668049    -0.09700
C391        C  0.37166924  0.65144091  0.76059994     0.06400
C392        C  0.37619312  0.67112646  0.81186555    -0.03500
C393        C  0.39971657  0.63940078  0.84872939    -0.08000
C394        C  0.41868565  0.58758541  0.83533049     0.04300
C395        C  0.41413558  0.56845446  0.78311206    -0.03000
Br396      Br  0.43586220  0.49861141  0.75755931    -0.02700
H397        H  0.38745162  0.58542403  0.70701825     0.09500
H398        H  0.40234018  0.65518616  0.88824071     0.07500
Br399      Br  0.34901309  0.74004115  0.83326541    -0.03100
loop_ 
_geom_bond_atom_site_label_1 
_geom_bond_atom_site_label_2 
_geom_bond_distance 
_geom_bond_site_symmetry_2 
_ccdc_geom_bond_type 
O1            C9   1.273       .  A
O1          Co21   2.015       .  S
O2           C10   1.296       .  A
O2          Co22   2.096       .  S
O3           C11   1.257       .  A
O3          Co23   1.983   1_554  S
O4           C12   1.273       .  A
O4          Co24   1.985       .  S
O5           C11   1.262       .  A
O5          Co22   2.005       .  S
O6           C12   1.280       .  A
O6          Co21   2.027       .  S
O7           C10   1.270       .  A
O7          Co24   1.905   1_554  S
O8            C9   1.266       .  A
O8          Co23   1.968       .  S
C9          C394   1.490       .  S
C10         C334   1.477       .  S
C11         C344   1.490       .  S
C12         C361   1.503       .  S
O13          C26   1.254       .  A
O13         Co21   1.964       .  S
O14          C27   1.263       .  A
O14         Co22   1.970       .  S
O15          C28   1.270       .  A
O15         Co23   2.028       .  S
O16          C29   1.296       .  A
O16         Co24   2.119   1_554  S
O17          C29   1.260       .  A
O17         Co22   1.872       .  S
O18          C28   1.254       .  A
O18         Co21   1.957       .  S
O19          C26   1.263       .  A
O19         Co24   2.024       .  S
O20          C27   1.282       .  A
O20         Co23   2.044   1_554  S
Co21         O25   1.997       .  S
Co22         O25   1.981   1_554  S
Co23         O25   2.060       .  S
Co24         O25   2.039       .  S
C26         C371   1.481       .  S
C27         C351   1.497       .  S
C28         C384   1.489       .  S
C29         C321   1.487       .  S
O30          C38   1.256       .  A
O30         Co50   1.958       .  S
O31          C39   1.267       .  A
O31         Co51   1.968       .  S
O32          C40   1.298       .  A
O32         Co52   2.111       .  S
O33          C41   1.269       .  A
O33         Co53   2.024   1_565  S
O34          C40   1.265       .  A
O34         Co51   1.891       .  S
O35          C41   1.260       .  A
O35         Co50   1.962       .  S
O36          C39   1.281       .  A
O36         Co53   2.043       .  S
O37          C38   1.265       .  A
O37         Co52   2.034   1_565  S
C38         C301   1.490       .  S
C39         C244   1.490       .  S
C40         C271   1.488       .  S
C41         C291   1.490       .  S
O42          C55   1.274       .  A
O42         Co50   2.017       .  S
O43          C56   1.298       .  A
O43         Co51   2.105       .  S
O44          C57   1.274       .  A
O44         Co52   1.981   1_565  S
O45          C58   1.250       .  A
O45         Co53   1.960       .  S
O46          C58   1.263       .  A
O46         Co51   2.009       .  S
O47          C57   1.274       .  A
O47         Co50   2.014       .  S
O48          C55   1.262       .  A
O48         Co53   1.961   1_565  S
O49          C56   1.268       .  A
O49         Co52   1.904       .  S
Co50         O54   2.012   1_565  S
Co51         O54   2.007       .  S
Co52         O54   2.032       .  S
Co53         O54   2.043       .  S
C55         C284   1.483       .  S
C56         C261   1.496       .  S
C57         C311   1.485       .  S
C58         C254   1.475       .  S
O59          C67   1.262       .  A
O59         Co79   1.972       .  S
O60          C68   1.256       .  A
O60         Co80   1.874       .  S
O61          C69   1.281       .  A
O61         Co81   2.040       .  S
O62          C70   1.263       .  A
O62         Co82   2.008   1_655  S
O63          C69   1.263       .  A
O63         Co80   1.960       .  S
O64          C70   1.260       .  A
O64         Co79   1.984       .  S
O65          C68   1.299       .  A
O65         Co82   2.122       .  S
O66          C67   1.272       .  A
O66         Co81   2.018   1_655  S
C67         C221   1.480       .  S
C68         C161   1.487       .  S
C69         C194   1.484       .  S
C70         C211   1.487       .  S
O71          C84   1.281       .  A
O71         Co79   2.021       .  S
O72          C85   1.259       .  A
O72         Co80   1.996       .  S
O73          C86   1.262       .  A
O73         Co81   1.966   1_655  S
O74          C87   1.268       .  A
O74         Co82   1.910       .  S
O75          C87   1.291       .  A
O75         Co80   2.092       .  S
O76          C86   1.276       .  A
O76         Co79   2.028       .  S
O77          C84   1.271       .  A
O77         Co82   1.977   1_655  S
O78          C85   1.256       .  A
O78         Co81   1.977       .  S
Co79         O83   2.019   1_655  S
Co80         O83   1.988       .  S
Co81         O83   2.042       .  S
Co82         O83   2.026       .  S
C84         C204   1.489       .  S
C85         C181   1.474       .  S
C86         C234   1.494       .  S
C87         C174   1.475       .  S
C88         C224   1.492       .  S
C88          C89   1.412       .  A
C88          C93   1.405       .  A
C89          C90   1.406       .  A
C89          H94   1.084       .  S
C90         C274   1.481       .  S
C90          C91   1.399       .  A
C91          C92   1.397       .  A
C91          H95   1.085       .  S
C92         C324   1.470       .  S
C92          C93   1.399       .  A
C93          H96   1.082       .  S
C97         C231   1.485       .  S
C97          C98   1.398       .  A
C97         C102   1.401       .  A
C98          C99   1.406       .  A
C98         H103   1.083       .  S
C99         C304   1.491       .  S
C99         C100   1.410       .  A
C100        C101   1.414       .  A
C100        H104   1.078       .  S
C101        C331   1.514       .  S
C101        C102   1.415       .  A
C102        H105   1.081       .  S
C106        C374   1.492       .  S
C106        C107   1.403       .  A
C106        C111   1.405       .  A
C107        C108   1.411       .  A
C107        H112   1.082       .  S
C108        C214   1.501       .  S
C108        C109   1.411       .  A
C109        C110   1.408       .  A
C109        H113   1.080       .  S
C110        C241   1.494       .  S
C110        C111   1.404       .  A
C111        H114   1.084       .  S
C115        C314   1.471       .  S
C115        C116   1.399       .  A
C115        C120   1.407       .  A
C116        C117   1.398       .  A
C116        H121   1.085       .  S
C117        C184   1.470       .  S
C117        C118   1.401       .  A
C118        C119   1.404       .  A
C118        H122   1.084       .  S
C119        C341   1.486       .  S
C119        C120   1.407       .  A
C120        H123   1.084       .  S
C124        C391   1.471       .  S
C124        C125   1.393       .  A
C124        C129   1.397       .  A
C125        C126   1.401       .  A
C125        H130   1.084       .  S
C126        C281   1.480       .  S
C126        C127   1.409       .  A
C127        C128   1.412       .  A
C127        H131   1.080       .  S
C128        C171   1.503       .  S
C128        C129   1.411       .  A
C129        H132   1.082       .  S
C133        C381   1.511       .  S
C133        C134   1.418       .  A
C133        C138   1.416       .  A
C134        C135   1.408       .  A
C134        H139   1.079       .  S
C135        C164   1.477       .  S
C135        C136   1.395       .  A
C136        C137   1.391       .  A
C136        H140   1.085       .  S
C137        C251   1.476       .  S
C137        C138   1.399       .  A
C138        H141   1.080       .  S
C142        C364   1.490       .  S
C142        C143   1.408       .  A
C142        C147   1.406       .  A
C143        C144   1.406       .  A
C143        H148   1.084       .  S
C144        C201   1.480       .  S
C144        C145   1.397       .  A
C145        C146   1.405       .  A
C145        H149   1.082       .  S
C146        C294   1.498       .  S
C146        C147   1.413       .  A
C147        H150   1.083       .  S
C151        C264   1.497       .  S
C151        C152   1.409       .  A
C151        C156   1.407       .  A
C152        C153   1.414       .  A
C152        H157   1.083       .  S
C153        C354   1.505       .  S
C153        C154   1.406       .  A
C154        C155   1.404       .  A
C154        H158   1.076       .  S
C155        C191   1.500       .  S
C155        C156   1.410       .  A
C156        H159   1.083       .  S
C160        C161   1.409       .  A
C160        C165   1.403       .  A
C160        H167   1.083       .  S
C161        C162   1.420       .  A
C162        C163   1.393       .  A
C162       Br169   1.927       .  S
C163        C164   1.398       .  A
C163        H168   1.083       .  S
C164        C165   1.406       .  A
C165       Br166   1.917       .  S
C170        C171   1.409       .  A
C170        C175   1.392       .  A
C170        H177   1.081       .  S
C171        C172   1.421       .  A
C172        C173   1.407       .  A
C172       Br179   1.920       .  S
C173        C174   1.403       .  A
C173        H178   1.083       .  S
C174        C175   1.404       .  A
C175       Br176   1.913       .  S
C180        C181   1.407       .  A
C180        C185   1.397       .  A
C180        H187   1.084       .  S
C181        C182   1.412       .  A
C182        C183   1.397       .  A
C182       Br189   1.922       .  S
C183        C184   1.402       .  A
C183        H188   1.084       .  S
C184        C185   1.403       .  A
C185       Br186   1.917       .  S
C190        C191   1.408       .  A
C190        C195   1.401       .  A
C190        H197   1.083       .  S
C191        C192   1.419       .  A
C192        C193   1.399       .  A
C192       Br199   1.925       .  S
C193        C194   1.403       .  A
C193        H198   1.084       .  S
C194        C195   1.412       .  A
C195       Br196   1.918       .  S
C200        C201   1.401       .  A
C200        C205   1.406       .  A
C200        H207   1.083       .  S
C201        C202   1.406       .  A
C202        C203   1.396       .  A
C202       Br209   1.919       .  S
C203        C204   1.407       .  A
C203        H208   1.084       .  S
C204        C205   1.419       .  A
C205       Br206   1.920       .  S
C210        C211   1.406       .  A
C210        C215   1.406       .  A
C210        H217   1.084       .  S
C211        C212   1.412       .  A
C212        C213   1.395       .  A
C212       Br219   1.918       .  S
C213        C214   1.407       .  A
C213        H218   1.082       .  S
C214        C215   1.417       .  A
C215       Br216   1.921       .  S
C220        C221   1.403       .  A
C220        C225   1.398       .  A
C220        H227   1.084       .  S
C221        C222   1.407       .  A
C222        C223   1.401       .  A
C222       Br229   1.912       .  S
C223        C224   1.406       .  A
C223        H228   1.083       .  S
C224        C225   1.419       .  A
C225       Br226   1.923       .  S
C230        C231   1.401       .  A
C230        C235   1.404       .  A
C230        H237   1.083       .  S
C231        C232   1.409       .  A
C232        C233   1.398       .  A
C232       Br239   1.921       .  S
C233        C234   1.408       .  A
C233        H238   1.083       .  S
C234        C235   1.421       .  A
C235       Br236   1.922       .  S
C240        C241   1.406       .  A
C240        C245   1.402       .  A
C240        H247   1.083       .  S
C241        C242   1.413       .  A
C242        C243   1.402       .  A
C242       Br249   1.921       .  S
C243        C244   1.407       .  A
C243        H248   1.083       .  S
C244        C245   1.411       .  A
C245       Br246   1.910       .  S
C250        C251   1.399       .  A
C250        C255   1.398       .  A
C250        H257   1.084       .  S
C251        C252   1.413       .  A
C252        C253   1.394       .  A
C252       Br259   1.921       .  S
C253        C254   1.399       .  A
C253        H258   1.084       .  S
C254        C255   1.418       .  A
C255       Br256   1.923       .  S
C260        C261   1.407       .  A
C260        C265   1.403       .  A
C260        H267   1.083       .  S
C261        C262   1.416       .  A
C262        C263   1.406       .  A
C262       Br269   1.920       .  S
C263        C264   1.406       .  A
C263        H268   1.083       .  S
C264        C265   1.414       .  A
C265       Br266   1.921       .  S
C270        C271   1.409       .  A
C270        C275   1.400       .  A
C270        H277   1.083       .  S
C271        C272   1.413       .  A
C272        C273   1.398       .  A
C272       Br279   1.910       .  S
C273        C274   1.401       .  A
C273        H278   1.084       .  S
C274        C275   1.409       .  A
C275       Br276   1.920       .  S
C280        C281   1.402       .  A
C280        C285   1.399       .  A
C280        H287   1.084       .  S
C281        C282   1.410       .  A
C282        C283   1.395       .  A
C282       Br289   1.921       .  S
C283        C284   1.406       .  A
C283        H288   1.083       .  S
C284        C285   1.417       .  A
C285       Br286   1.923       .  S
C290        C291   1.405       .  A
C290        C295   1.395       .  A
C290        H297   1.083       .  S
C291        C292   1.415       .  A
C292        C293   1.402       .  A
C292       Br299   1.918       .  S
C293        C294   1.407       .  A
C293        H298   1.082       .  S
C294        C295   1.419       .  A
C295       Br296   1.925       .  S
C300        C301   1.409       .  A
C300        C305   1.399       .  A
C300        H307   1.084       .  S
C301        C302   1.410       .  A
C302        C303   1.405       .  A
C302       Br309   1.909       .  S
C303        C304   1.407       .  A
C303        H308   1.084       .  S
C304        C305   1.409       .  A
C305       Br306   1.921       .  S
C310        C311   1.409       .  A
C310        C315   1.402       .  A
C310        H317   1.083       .  S
C311        C312   1.419       .  A
C312        C313   1.394       .  A
C312       Br319   1.922       .  S
C313        C314   1.396       .  A
C313        H318   1.084       .  S
C314        C315   1.405       .  A
C315       Br316   1.917       .  S
C320        C321   1.407       .  A
C320        C325   1.386       .  A
C320        H327   1.083       .  S
C321        C322   1.417       .  A
C322        C323   1.405       .  A
C322       Br329   1.913       .  S
C323        C324   1.401       .  A
C323        H328   1.083       .  S
C324        C325   1.404       .  A
C325       Br326   1.923       .  S
C330        C331   1.413       .  A
C330        C335   1.394       .  A
C330        H337   1.080       .  S
C331        C332   1.426       .  A
C332        C333   1.408       .  A
C332       Br339   1.921       .  S
C333        C334   1.400       .  A
C333        H338   1.084       .  S
C334        C335   1.404       .  A
C335       Br336   1.916       .  S
C340        C341   1.403       .  A
C340        C345   1.404       .  A
C340        H347   1.083       .  S
C341        C342   1.412       .  A
C342        C343   1.399       .  A
C342       Br349   1.922       .  S
C343        C344   1.406       .  A
C343        H348   1.084       .  S
C344        C345   1.417       .  A
C345       Br346   1.921       .  S
C350        C351   1.406       .  A
C350        C355   1.405       .  A
C350        H357   1.083       .  S
C351        C352   1.418       .  A
C352        C353   1.398       .  A
C352       Br359   1.914       .  S
C353        C354   1.405       .  A
C353        H358   1.082       .  S
C354        C355   1.419       .  A
C355       Br356   1.921       .  S
C360        C361   1.412       .  A
C360        C365   1.399       .  A
C360        H367   1.083       .  S
C361        C362   1.420       .  A
C362        C363   1.409       .  A
C362       Br369   1.922       .  S
C363        C364   1.405       .  A
C363        H368   1.083       .  S
C364        C365   1.405       .  A
C365       Br366   1.918       .  S
C370        C371   1.404       .  A
C370        C375   1.407       .  A
C370        H377   1.082       .  S
C371        C372   1.412       .  A
C372        C373   1.393       .  A
C372       Br379   1.922       .  S
C373        C374   1.403       .  A
C373        H378   1.083       .  S
C374        C375   1.415       .  A
C375       Br376   1.918       .  S
C380        C381   1.412       .  A
C380        C385   1.393       .  A
C380        H387   1.079       .  S
C381        C382   1.421       .  A
C382        C383   1.406       .  A
C382       Br389   1.921       .  S
C383        C384   1.406       .  A
C383        H388   1.083       .  S
C384        C385   1.412       .  A
C385       Br386   1.927       .  S
C390        C391   1.398       .  A
C390        C395   1.394       .  A
C390        H397   1.084       .  S
C391        C392   1.401       .  A
C392        C393   1.402       .  A
C392       Br399   1.917       .  S
C393        C394   1.413       .  A
C393        H398   1.083       .  S
C394        C395   1.420       .  A
C395       Br396   1.925       .  S
