geometry optimzed in LAMMPS
_audit_creation_date              2020-12-01 
_audit_creation_method            'lammps2cif' 
_symmetry_space_group_name_H-M    'P1' 
_symmetry_Int_Tables_number       1 
_symmetry_cell_setting            triclinic 
loop_ 
_symmetry_equiv_pos_as_xyz 
  x,y,z 
_cell_length_a                    36.74112871 
_cell_length_b                    34.71504869897775 
_cell_length_c                    24.349670072380167 
_cell_angle_alpha                 90.05179567702707 
_cell_angle_beta                  90.85765755949517 
_cell_angle_gamma                 122.5421960857818 
loop_ 
_atom_site_label 
_atom_site_type_symbol 
_atom_site_fract_x 
_atom_site_fract_y 
_atom_site_fract_z 
_atom_site_charge 
C1          C  0.24911106  0.11749294  0.97935061     0.02600
C2          C  0.26962969  0.16521152  0.97930844    -0.13500
C3          C  0.31480367  0.19397828  0.97562241     0.00100
C4          C  0.33965497  0.17397862  0.97335766    -0.12000
C5          C  0.31955476  0.12599389  0.97533161     0.02600
C6          C  0.27441765  0.09842181  0.97897929    -0.11500
H7          H  0.25013725  0.18003740  0.97919016     0.08200
H8          H  0.37425003  0.19546107  0.96813358     0.05700
H9          H  0.25860499  0.06158885  0.97862607     0.05600
C10         C  0.31618619  0.13417518  0.48124647     0.02600
C11         C  0.34538353  0.18136041  0.47352986    -0.13500
C12         C  0.39009384  0.19979234  0.47180960     0.00100
C13         C  0.40545309  0.17076479  0.47673075    -0.12000
C14         C  0.37703835  0.12385930  0.48616054     0.02600
C15         C  0.33247299  0.10598220  0.48836624    -0.11500
H16         H  0.33326353  0.20337926  0.46671697     0.08200
H17         H  0.43935816  0.18457939  0.47001806     0.05700
H18         H  0.31018014  0.06938883  0.49152921     0.05600
C19         C  0.18200281  0.35752369  0.76130470     0.02600
C20         C  0.15650623  0.30993192  0.76782716    -0.13500
C21         C  0.11128837  0.28659738  0.76418282     0.00100
C22         C  0.09215951  0.31110748  0.75112326    -0.12000
C23         C  0.11697708  0.35915661  0.74934302     0.02600
C24         C  0.16210149  0.38204175  0.75304330    -0.11500
H25         H  0.17180673  0.29146371  0.77820577     0.08200
H26         H  0.05723570  0.29314881  0.74904217     0.05700
H27         H  0.18166417  0.41903054  0.75488453     0.05600
C28         C  0.24217523  0.36291750  0.24883810     0.02600
C29         C  0.21621367  0.31499469  0.24614694    -0.13500
C30         C  0.17182607  0.29192565  0.25546710     0.00100
C31         C  0.15241843  0.31727900  0.26077316    -0.12000
C32         C  0.17754561  0.36533827  0.25999871     0.02600
C33         C  0.22245338  0.38796739  0.25364865    -0.11500
H34         H  0.23142774  0.29559403  0.24362622     0.08200
H35         H  0.11814809  0.29971863  0.26856448     0.05700
H36         H  0.24230278  0.42488223  0.25739913     0.05600
O37         O  0.05773209  0.49815037  0.81961729    -0.80600
O38         O  0.37769803  0.44931566  0.86020691    -0.80700
O39         O  0.41849518  0.39474277  0.88421045    -0.80700
O40         O  0.45179033  0.97337934  0.76148322    -0.80600
O41         O  0.39927206  0.41904373  0.95255934    -0.80700
O42         O  0.01648057  0.03454040  0.76832066    -0.80700
O43         O  0.38905991  0.49705856  0.79190615    -0.80600
O44         O  0.99592279  0.43232107  0.82016383    -0.80700
C45         C  0.03506012  0.45578247  0.80740334     1.09100
C46         C  0.36340435  0.46151266  0.81897729     1.08900
C47         C  0.39551334  0.38585341  0.92561976     1.09100
C48         C  0.48516774  0.50218876  0.73885799     1.09000
O49         O  0.01982521  0.08534948  0.86771864    -0.80600
O50         O  0.47014266  0.50799631  0.98038348    -0.80700
O51         O  0.04230204  0.97597701  0.92459941    -0.80700
O52         O  0.42349953  0.03322010  0.88341574    -0.80600
O53         O  0.38565462  0.98573836  0.95019953    -0.80700
O54         O  0.05468323  0.04528620  0.92508470    -0.80700
O55         O  0.97322245  0.06579685  0.80122831    -0.80600
O56         O  0.97418057  0.44663278  0.97638325    -0.80700
Co57       Co  0.03301475  0.03911815  0.84909102     1.51500
Co58       Co  0.42802293  0.48233002  0.91918469     1.51700
Co59       Co  0.98341151  0.43949189  0.89575356     1.54600
Co60       Co  0.43775468  0.99890868  0.82436530     1.51500
O61         O  0.47600002  0.49055013  0.87272006    -1.42600
C62         C  0.00471941  0.09708498  0.82926305     1.09000
C63         C  0.47934861  0.48192104  0.00482677     1.09100
C64         C  0.06579244  0.01795585  0.93855698     1.09000
C65         C  0.39727359  0.02210803  0.92399292     1.09000
O66         O  0.11258204  0.50774572  0.28958632    -0.80600
O67         O  0.43884077  0.43355430  0.32104041    -0.80700
O68         O  0.52490168  0.42327564  0.44723212    -0.80700
O69         O  0.51901556  0.03837452  0.26205189    -0.80600
O70         O  0.47814688  0.39961234  0.38017178    -0.80700
O71         O  0.02818666  0.98160403  0.26641920    -0.80700
O72         O  0.44323020  0.49910608  0.31820928    -0.80600
O73         O  0.07682149  0.45850565  0.35560976    -0.80700
C74         C  0.10318497  0.47176776  0.31476169     1.09100
C75         C  0.42358174  0.45680598  0.30573894     1.08900
C76         C  0.49521376  0.39050056  0.41886526     1.09100
C77         C  0.51818829  0.50515579  0.23932311     1.09000
O78         O  0.09280689  0.07254281  0.29815484    -0.80600
O79         O  0.47624463  0.44924909  0.47818179    -0.80700
O80         O  0.10748329  0.99768933  0.45726033    -0.80700
O81         O  0.49232407  0.05268134  0.41633363    -0.80600
O82         O  0.43577956  0.98201620  0.41787765    -0.80700
O83         O  0.11627780  0.04570694  0.39108268    -0.80700
O84         O  0.06648285  0.09145591  0.36362246    -0.80600
O85         O  0.04063620  0.51162809  0.47714644    -0.80700
Co86       Co  0.06789685  0.00968296  0.33016879     1.51500
Co87       Co  0.45973556  0.44220991  0.39721147     1.51700
Co88       Co  0.05827450  0.48945720  0.41467614     1.51600
Co89       Co  0.50773780  0.04535112  0.34172673     1.51500
O90         O  0.51707097  0.49535323  0.37221469    -1.42600
C91         C  0.09167607  0.10350368  0.32394848     1.09000
C92         C  0.50744904  0.48306383  0.50473427     1.09100
C93         C  0.13212825  0.03438076  0.43138849     1.09000
C94         C  0.45431591  0.02402540  0.43135512     1.09000
C95         C  0.02071710  0.03322692  0.65187363    -0.26800
C96         C  0.49000831  0.49589309  0.67902396    -0.14900
C97         C  0.45557444  0.46284348  0.64542831     0.35700
C98         C  0.46201270  0.45954486  0.58913381    -0.26300
C99         C  0.50239104  0.48857244  0.56470493    -0.15500
C100        C  0.02663272  0.02974709  0.59546513     0.36800
N101        N  0.05850138  0.06954069  0.56687091    -0.89800
H102        H  0.04048833  0.06620221  0.67209449     0.17900
H103        H  0.43490242  0.43391037  0.56442911     0.17900
N104        N  0.41384514  0.43250297  0.66795264    -0.88800
H105        H  0.08847264  0.08161247  0.58598913     0.35300
H106        H  0.05120934  0.09465508  0.57095674     0.40400
H107        H  0.40561514  0.39897321  0.66110658     0.40000
H108        H  0.39150379  0.43697803  0.64659904     0.34900
C109        C  0.99714337  0.95922206  0.09319225    -0.26800
C110        C  0.49165073  0.48940145  0.06428619    -0.14900
C111        C  0.50345487  0.53050873  0.09201055     0.35700
C112        C  0.51172279  0.53435531  0.14889527    -0.26300
C113        C  0.50874234  0.49837922  0.17925954    -0.15500
C114        C  0.00771602  0.96454743  0.14958647     0.36800
N115        N  0.01858566  0.93476443  0.17507510    -0.89800
H116        H  0.99698774  0.93218303  0.07071748     0.17900
H117        H  0.52091663  0.56606203  0.16960228     0.17900
N118        N  0.50678471  0.56823397  0.06273517    -0.88800
H119        H  0.04514829  0.93832529  0.15493149     0.35300
H120        H  0.99252350  0.90110396  0.16935652     0.40400
H121        H  0.53208512  0.58006476  0.03516257     0.40000
H122        H  0.51517018  0.59550342  0.08941254     0.34900
C123        C  0.11298244  0.18367122  0.33932979    -0.26800
C124        C  0.11407124  0.15168077  0.30508248    -0.14900
C125        C  0.13246010  0.16560603  0.25247911     0.35700
C126        C  0.14959676  0.21112505  0.23604988    -0.26300
C127        C  0.14859007  0.24290503  0.27076152    -0.15500
C128        C  0.13014694  0.22889345  0.32307942     0.36800
N129        N  0.13000253  0.26098758  0.36032323    -0.89800
H130        H  0.09880434  0.17348416  0.37956210     0.17900
H131        H  0.16427108  0.22210588  0.19616846     0.17900
N132        N  0.13300766  0.13361555  0.21551222    -0.88800
H133        H  0.16207045  0.28544700  0.37104409     0.35300
H134        H  0.11452431  0.24503586  0.39677799     0.40400
H135        H  0.15426005  0.12527810  0.23220953     0.40000
H136        H  0.14562464  0.14881962  0.17764819     0.34900
C137        C  0.31928866  0.42465217  0.22972297    -0.26800
C138        C  0.28938724  0.38563609  0.25926859    -0.14900
C139        C  0.30449583  0.37000036  0.30214209     0.35700
C140        C  0.34876777  0.39259014  0.31331240    -0.26300
C141        C  0.37856183  0.43200467  0.28494426    -0.15500
C142        C  0.36394216  0.44828097  0.24250472     0.36800
N143        N  0.39430575  0.48852640  0.21293116    -0.89800
H144        H  0.30769549  0.43692027  0.19724637     0.17900
H145        H  0.35993104  0.38082031  0.34692019     0.17900
N146        N  0.27466593  0.33251287  0.33609768    -0.88800
H147        H  0.37831129  0.49588802  0.18291216     0.35300
H148        H  0.41467803  0.48128879  0.19214629     0.40400
H149        H  0.25673474  0.34271159  0.35749315     0.40000
H150        H  0.29107441  0.32529643  0.36569212     0.34900
C151        C  0.16034175  0.42388184  0.23570398    -0.26800
C152        C  0.15786621  0.39197579  0.27321165    -0.14900
C153        C  0.13755251  0.38655414  0.32373180     0.35700
C154        C  0.11985082  0.41263826  0.33578901    -0.26300
C155        C  0.12187681  0.44454845  0.29833387    -0.15500
C156        C  0.14245071  0.44989809  0.24734748     0.36800
N157        N  0.14504793  0.48056011  0.20599734    -0.89800
H158        H  0.17598945  0.42830956  0.19675879     0.17900
H159        H  0.10490484  0.40816186  0.37527780     0.17900
N160        N  0.13571043  0.35525983  0.36357639    -0.88800
H161        H  0.16352514  0.51402993  0.22132456     0.35300
H162        H  0.11386422  0.47236993  0.19620542     0.40400
H163        H  0.10327651  0.33172822  0.37223124     0.40000
H164        H  0.15112309  0.37361560  0.39964660     0.34900
C165        C  0.04791823  0.20703445  0.74831406    -0.26800
C166        C  0.08337169  0.23822456  0.78155662    -0.14900
C167        C  0.08972637  0.22390020  0.83308410     0.35700
C168        C  0.06216307  0.17820412  0.84856478    -0.26300
C169        C  0.02780776  0.14622715  0.81423545    -0.15500
C170        C  0.01989774  0.16128830  0.76413055     0.36800
N171        N  0.98432810  0.13009005  0.72873586    -0.89800
H172        H  0.04234460  0.21840058  0.70947615     0.17900
H173        H  0.06813727  0.16740843  0.88757966     0.17900
N174        N  0.12389580  0.25583940  0.86977866    -0.88800
H175        H  0.98406885  0.14630727  0.69271023     0.35300
H176        H  0.95588930  0.12070236  0.74912184     0.40400
H177        H  0.12445026  0.23969624  0.90573516     0.40000
H178        H  0.11712619  0.28029292  0.88152246     0.34900
C179        C  0.30379753  0.43356147  0.74919501    -0.26800
C180        C  0.31709042  0.43353988  0.80360654    -0.14900
C181        C  0.28564081  0.40810079  0.84347186     0.35700
C182        C  0.24190510  0.38249155  0.82813773    -0.26300
C183        C  0.22869708  0.38261601  0.77395083    -0.15500
C184        C  0.25995215  0.40855700  0.73411107     0.36800
N185        N  0.24805096  0.40962971  0.67811290    -0.89800
H186        H  0.32756181  0.45313918  0.71823679     0.17900
H187        H  0.21796183  0.36345908  0.85914143     0.17900
N188        N  0.29773156  0.40981690  0.90008266    -0.88800
H189        H  0.22852152  0.42303601  0.67694584     0.35300
H190        H  0.23006255  0.37607607  0.66295663     0.40400
H191        H  0.28604068  0.37646713  0.91295219     0.40000
H192        H  0.28260138  0.42261053  0.92302232     0.34900
C193        C  0.08814688  0.45011785  0.74975155    -0.26800
C194        C  0.05531876  0.43138290  0.78878699    -0.14900
C195        C  0.04297662  0.38938485  0.81320657     0.35700
C196        C  0.06308877  0.36680307  0.79838317    -0.26300
C197        C  0.09530406  0.38438894  0.75870464    -0.15500
C198        C  0.10797279  0.42658107  0.73373263     0.36800
N199        N  0.14056768  0.44519875  0.69248803    -0.89800
H200        H  0.09788810  0.48267937  0.73147041     0.17900
H201        H  0.05421159  0.33576125  0.82005145     0.17900
N202        N  0.01122129  0.37030320  0.85533206    -0.88800
H203        H  0.14610291  0.47636726  0.67852802     0.35300
H204        H  0.12856880  0.42267610  0.65887482     0.40400
H205        H  0.02558067  0.36699819  0.89091587     0.40000
H206        H  0.98642394  0.33762748  0.84254052     0.34900
C207        C  0.37219785  0.05605604  0.44451444    -0.26800
C208        C  0.39280995  0.09248059  0.48247659    -0.14900
C209        C  0.42980300  0.09998547  0.51176079     0.35700
C210        C  0.44820139  0.07506199  0.49723676    -0.26300
C211        C  0.42935327  0.04135278  0.45587958    -0.15500
C212        C  0.38982036  0.03021623  0.43149909     0.36800
N213        N  0.36909008  0.99495179  0.39037950    -0.89800
H214        H  0.34356055  0.04922941  0.42214115     0.17900
H215        H  0.47802255  0.08289594  0.51725594     0.17900
N216        N  0.44862325  0.13148096  0.55713124    -0.88800
H217        H  0.36657609  0.00950957  0.35408218     0.35300
H218        H  0.33784827  0.97097737  0.40330928     0.40400
H219        H  0.42448965  0.12330850  0.58549529     0.40000
H220        H  0.46117312  0.16475720  0.54368850     0.34900
C221        C  0.43703826  0.26182216  0.40698840    -0.26800
C222        C  0.42081087  0.24882899  0.46012021    -0.14900
C223        C  0.43459405  0.28267779  0.50144239     0.35700
C224        C  0.46205387  0.32892566  0.48821067    -0.26300
C225        C  0.47595034  0.34215942  0.43417676    -0.15500
C226        C  0.46445584  0.30823236  0.39354920     0.36800
N227        N  0.48006838  0.32120880  0.33863107    -0.89800
H228        H  0.42742204  0.23570070  0.37566869     0.17900
H229        H  0.47059599  0.35472596  0.51962898     0.17900
N230        N  0.42078262  0.27089960  0.55696377    -0.88800
H231        H  0.46849431  0.29222521  0.31360452     0.35300
H232        H  0.51358266  0.33729011  0.34054609     0.40400
H233        H  0.43014722  0.24901298  0.57114406     0.40000
H234        H  0.38707749  0.25321147  0.55723883     0.34900
C235        C  0.25397428  0.11793719  0.42138179    -0.26800
C236        C  0.26883365  0.11287073  0.47260666    -0.14900
C237        C  0.23813361  0.08443940  0.51206994     0.35700
C238        C  0.19382236  0.06037420  0.49862347    -0.26300
C239        C  0.17896868  0.06404079  0.44648328    -0.15500
C240        C  0.20968654  0.09382907  0.40789017     0.36800
N241        N  0.19637357  0.09820889  0.35387443    -0.89800
H242        H  0.27705263  0.13930710  0.39057501     0.17900
H243        H  0.17087512  0.03819517  0.52905643     0.17900
N244        N  0.25088393  0.08007834  0.56644017    -0.88800
H245        H  0.21103862  0.08846768  0.32536002     0.35300
H246        H  0.20764038  0.13263945  0.34761113     0.40400
H247        H  0.27006074  0.11274214  0.58382996     0.40000
H248        H  0.26917736  0.06530884  0.56433450     0.34900
C249        C  0.35584480  0.04178599  0.98663436    -0.26800
C250        C  0.38124023  0.05204855  0.93970760    -0.14900
C251        C  0.38898248  0.08948925  0.90712166     0.35700
C252        C  0.37062702  0.11473032  0.92119058    -0.26300
C253        C  0.34410862  0.10339995  0.96700659    -0.15500
C254        C  0.33744030  0.06699551  0.00047630     0.36800
N255        N  0.31184126  0.05541228  0.04869635    -0.89800
H256        H  0.34958204  0.01354886  0.01252528     0.17900
H257        H  0.37561999  0.14211804  0.89458513     0.17900
N258        N  0.41432530  0.10134852  0.85861288    -0.88800
H259        H  0.33097519  0.05800806  0.08248020     0.35300
H260        H  0.28625206  0.02132174  0.04491213     0.40400
H261        H  0.43142374  0.63430636  0.86011158     0.40000
H262        H  0.38318734  0.59367821  0.83215695     0.34900
C263        C  0.38867752  0.32464393  0.98633253    -0.26800
C264        C  0.37058472  0.33821812  0.94530682    -0.14900
C265        C  0.33371616  0.30462786  0.91618709     0.35700
C266        C  0.31584800  0.25819290  0.92749743    -0.26300
C267        C  0.33448607  0.24411154  0.96721472    -0.15500
C268        C  0.37103796  0.27797131  0.99741264     0.36800
N269        N  0.39033981  0.26521958  0.03920163    -0.89800
H270        H  0.41770330  0.35027824  0.00825266     0.17900
H271        H  0.28792320  0.23288324  0.90363485     0.17900
N272        N  0.31489103  0.31760778  0.87404388    -0.88800
H273        H  0.42257460  0.27885148  0.02906127     0.35300
H274        H  0.39002191  0.28030287  0.07622666     0.40400
H275        H  0.28268628  0.30433316  0.88395187     0.40000
H276        H  0.31518643  0.30231729  0.83718099     0.34900
C277        C  0.17495722  0.09574114  0.00736268    -0.26800
C278        C  0.20117729  0.08767076  0.97392351    -0.14900
C279        C  0.18137904  0.05293716  0.93302643     0.35700
C280        C  0.13626876  0.02720449  0.92684524    -0.26300
C281        C  0.11051991  0.03709060  0.95806220    -0.15500
C282        C  0.12988107  0.07109167  0.99924488     0.36800
N283        N  0.10386793  0.08082679  0.03245632    -0.89800
H284        H  0.18961832  0.12206654  0.03896795     0.17900
H285        H  0.12140321  0.00179080  0.89420462     0.17900
N286        N  0.20713859  0.04573434  0.89557198    -0.88800
H287        H  0.11473871  0.11532288  0.02779728     0.35300
H288        H  0.10879652  0.07577006  0.07353295     0.40400
H289        H  0.22457977  0.07524834  0.87205648     0.40000
H290        H  0.18757034  0.01900103  0.86806832     0.34900
C291        C  0.24868222  0.61624153  0.99218088     0.02600
C292        C  0.26731990  0.66336595  0.98487010    -0.13500
C293        C  0.31197871  0.69292080  0.97995442     0.00100
C294        C  0.33850663  0.67515075  0.98154465    -0.12000
C295        C  0.32059016  0.62810938  0.98969022     0.02600
C296        C  0.27583784  0.59935999  0.99721612    -0.11500
H297        H  0.24692406  0.67687517  0.97930705     0.08200
H298        H  0.37275085  0.69758019  0.97420750     0.05700
H299        H  0.26174200  0.56307693  0.00252300     0.05600
C300        C  0.31593398  0.63576734  0.47873383     0.02600
C301        C  0.34526138  0.68308515  0.47181829    -0.13500
C302        C  0.38992012  0.70138277  0.46884728     0.00100
C303        C  0.40507772  0.67201921  0.47204908    -0.12000
C304        C  0.37635668  0.62483522  0.47952429     0.02600
C305        C  0.33193877  0.60712370  0.48270589    -0.11500
H306        H  0.33322687  0.70533472  0.46653742     0.08200
H307        H  0.43899650  0.68571975  0.46547194     0.05700
H308        H  0.30954762  0.57044601  0.48447719     0.05600
C309        C  0.18019662  0.85801957  0.76010902     0.02600
C310        C  0.15435891  0.81008859  0.76016049    -0.13500
C311        C  0.10923637  0.78728329  0.76036050     0.00100
C312        C  0.08986884  0.81242196  0.75598528    -0.12000
C313        C  0.11490322  0.86041805  0.75851505     0.02600
C314        C  0.16021584  0.88303395  0.76070857    -0.11500
H315        H  0.16938847  0.79053309  0.76368439     0.08200
H316        H  0.05493142  0.79439533  0.75593902     0.05700
H317        H  0.17980778  0.91969764  0.76700451     0.05600
C318        C  0.24292485  0.86527588  0.25276031     0.02600
C319        C  0.21858899  0.81754142  0.24744935    -0.13500
C320        C  0.17429986  0.79271894  0.25661617     0.00100
C321        C  0.15286393  0.81581577  0.26283301    -0.12000
C322        C  0.17619766  0.86388899  0.26323425     0.02600
C323        C  0.22141145  0.88842690  0.25836851    -0.11500
H324        H  0.23489430  0.79936060  0.24327504     0.08200
H325        H  0.11843181  0.79634109  0.26992866     0.05700
H326        H  0.23999344  0.92525677  0.26344768     0.05600
O327        O  0.05338615  0.99760688  0.82580051    -0.80600
O328        O  0.37800964  0.94373131  0.85288516    -0.80700
O329        O  0.42198936  0.89207515  0.87961838    -0.80700
O330        O  0.44960736  0.47698964  0.76346222    -0.80600
O331        O  0.39811549  0.91404536  0.94539522    -0.80700
O332        O  0.01916439  0.53295601  0.76130937    -0.80700
O333        O  0.38939749  0.99152251  0.78528775    -0.80600
O334        O  0.99138053  0.93200270  0.82551530    -0.80700
C335        C  0.03056972  0.95524786  0.81334884     1.09100
C336        C  0.36363357  0.95531677  0.81119102     1.08900
C337        C  0.39577897  0.88180344  0.91782773     1.09100
C338        C  0.48726760  0.99969904  0.73755539     1.09000
O339        O  0.02341049  0.58561105  0.85911775    -0.80600
O340        O  0.46651472  0.00314704  0.97805585    -0.80700
O341        O  0.04624592  0.47728052  0.91903331    -0.80700
O342        O  0.42477178  0.53794524  0.88960129    -0.80600
O343        O  0.38934521  0.49174127  0.95849259    -0.80700
O344        O  0.05921852  0.54692259  0.91747325    -0.80700
O345        O  0.97644706  0.56536761  0.79291902    -0.80600
O346        O  0.96988521  0.94481539  0.98194235    -0.80700
Co347      Co  0.03676301  0.53933762  0.84173517     1.51500
Co348      Co  0.42659528  0.97772353  0.91412655     1.51700
Co349      Co  0.97916817  0.93841217  0.90127962     1.54600
Co350      Co  0.43720315  0.50270560  0.82865142     1.51500
O351        O  0.47683574  0.98829432  0.87072782    -1.42600
C352        C  0.00790746  0.59689066  0.82063299     1.09000
C353        C  0.47626569  0.97772579  0.00328382     1.09100
C354        C  0.06922156  0.51915468  0.93339402     1.09000
C355        C  0.40023972  0.52773373  0.93207022     1.09000
O356        O  0.11075626  0.00591588  0.29324136    -0.80600
O357        O  0.44064174  0.93749360  0.31986941    -0.80700
O358        O  0.52534327  0.92529620  0.44660486    -0.80700
O359        O  0.51761745  0.53735623  0.26387161    -0.80600
O360        O  0.48020422  0.90370544  0.37801146    -0.80700
O361        O  0.03007636  0.48368336  0.26140942    -0.80700
O362        O  0.44517456  0.00301010  0.31798277    -0.80600
O363        O  0.07457628  0.95627324  0.35871948    -0.80700
C364        C  0.10079177  0.96945722  0.31770613     1.09100
C365        C  0.42510316  0.96072483  0.30570268     1.08900
C366        C  0.49597940  0.89316797  0.41679228     1.09100
C367        C  0.51896595  0.00550244  0.23806036     1.09000
O368        O  0.09466233  0.57391562  0.29533932    -0.80600
O369        O  0.47776940  0.95191635  0.47684441    -0.80700
O370        O  0.10728603  0.49936063  0.45497960    -0.80700
O371        O  0.48962984  0.54881516  0.41789471    -0.80600
O372        O  0.43296140  0.47843681  0.41812560    -0.80700
O373        O  0.11689829  0.54680859  0.38769431    -0.80700
O374        O  0.06791760  0.59341675  0.36007103    -0.80600
O375        O  0.04125243  0.01003402  0.48344434    -0.80700
Co376      Co  0.06915695  0.51096125  0.32587878     1.51500
Co377      Co  0.46159181  0.94552604  0.39592505     1.51700
Co378      Co  0.05751951  0.98754446  0.41918596     1.51600
Co379      Co  0.50549673  0.54258332  0.34330764     1.51500
O380        O  0.51886944  0.99804058  0.37109115    -1.42600
C381        C  0.09437056  0.60503291  0.32186690     1.09000
C382        C  0.50851789  0.98605704  0.50339969     1.09100
C383        C  0.13217925  0.53590699  0.42906837     1.09000
C384        C  0.45115670  0.52055187  0.43114210     1.09000
C385        C  0.03140689  0.51643518  0.65232013    -0.26800
C386        C  0.49180712  0.99485444  0.67767457    -0.14900
C387        C  0.45583034  0.96951839  0.64189982     0.35700
C388        C  0.46208153  0.96771540  0.58538136    -0.26300
C389        C  0.50367852  0.99098853  0.56313725    -0.15500
C390        C  0.03698375  0.51364171  0.59583707     0.36800
N391        N  0.07985335  0.53666935  0.57480126    -0.89800
H392        H  0.05990401  0.53664201  0.67817927     0.17900
H393        H  0.43399084  0.94807780  0.55869748     0.17900
N394        N  0.41278407  0.94623071  0.66234001    -0.88800
H395        H  0.09672521  0.52424600  0.59512127     0.35300
H396        H  0.09513466  0.57147946  0.58409990     0.40400
H397        H  0.39751501  0.91157605  0.65209653     0.40000
H398        H  0.39617931  0.95906566  0.64228439     0.34900
C399        C  0.99117606  0.45558544  0.09087557    -0.26800
C400        C  0.48807304  0.98545289  0.06314859    -0.14900
C401        C  0.49613173  0.02499483  0.09122305     0.35700
C402        C  0.50588792  0.03033518  0.14772956    -0.26300
C403        C  0.50768026  0.99694717  0.17811049    -0.15500
C404        C  0.00072029  0.46083321  0.14755780     0.36800
N405        N  0.00156472  0.42538296  0.17642139    -0.89800
H406        H  0.98475296  0.42468451  0.07058109     0.17900
H407        H  0.51232921  0.06130903  0.16783391     0.17900
N408        N  0.49475672  0.06026132  0.06268964    -0.88800
H409        H  0.02466597  0.42083408  0.15835864     0.35300
H410        H  0.97138717  0.39507724  0.17126623     0.40400
H411        H  0.52483866  0.09074510  0.06765962     0.40000
H412        H  0.47157308  0.06447462  0.08109388     0.34900
C413        C  0.12570253  0.68675066  0.34317638    -0.26800
C414        C  0.11954924  0.65339771  0.30487962    -0.14900
C415        C  0.13234405  0.66629233  0.24990018     0.35700
C416        C  0.14925453  0.71185941  0.23427994    -0.26300
C417        C  0.15350424  0.74439882  0.27236264    -0.15500
C418        C  0.14275138  0.73195419  0.32748389     0.36800
N419        N  0.14996660  0.76550393  0.36791008    -0.89800
H420        H  0.11662842  0.67758683  0.38558263     0.17900
H421        H  0.15904721  0.72208760  0.19231214     0.17900
N422        N  0.12668402  0.63302600  0.20972963    -0.88800
H423        H  0.17092573  0.76647722  0.39819479     0.35300
H424        H  0.12047320  0.75488604  0.38620461     0.40400
H425        H  0.14816255  0.62308854  0.22013937     0.40000
H426        H  0.13549789  0.64768920  0.17083883     0.34900
C427        C  0.31895388  0.93100485  0.23749360    -0.26800
C428        C  0.29021459  0.88934350  0.26331817    -0.14900
C429        C  0.30660806  0.87170007  0.30195550     0.35700
C430        C  0.35107314  0.89445422  0.31135644    -0.26300
C431        C  0.37977482  0.93616859  0.28623843    -0.15500
C432        C  0.36371942  0.95498764  0.24920662     0.36800
N433        N  0.39274355  0.99822899  0.22407263    -0.89800
H434        H  0.30639843  0.94495555  0.20859831     0.17900
H435        H  0.36319122  0.88081980  0.34141098     0.17900
N436        N  0.27794688  0.83186134  0.33358398    -0.88800
H437        H  0.37573652  0.00735290  0.19807460     0.35300
H438        H  0.41350791  0.99420039  0.19930681     0.40400
H439        H  0.25996739  0.83998086  0.35838176     0.40000
H440        H  0.29524819  0.82342216  0.36007915     0.34900
C441        C  0.16235695  0.92528747  0.24162387    -0.26800
C442        C  0.15446936  0.88877097  0.27505539    -0.14900
C443        C  0.12816858  0.87838434  0.32123020     0.35700
C444        C  0.11011508  0.90421434  0.33287279    -0.26300
C445        C  0.11850587  0.94148105  0.30017156    -0.15500
C446        C  0.14513301  0.95182291  0.25364396     0.36800
N447        N  0.15590710  0.98916900  0.21799673    -0.89800
H448        H  0.18271719  0.93374000  0.20615374     0.17900
H449        H  0.09042128  0.89568596  0.36900132     0.17900
N450        N  0.12129330  0.84296417  0.35800529    -0.88800
H451        H  0.17306352  0.01968936  0.24054586     0.35300
H452        H  0.12740788  0.98491537  0.20188776     0.40400
H453        H  0.08804395  0.81929158  0.36032067     0.40000
H454        H  0.13271392  0.85751418  0.39703027     0.34900
C455        C  0.04721444  0.70739798  0.74230121    -0.26800
C456        C  0.08248629  0.73858226  0.77567096    -0.14900
C457        C  0.09010064  0.72403817  0.82612883     0.35700
C458        C  0.06409025  0.67800337  0.84045537    -0.26300
C459        C  0.02988210  0.64594700  0.80609273    -0.15500
C460        C  0.02058526  0.66115273  0.75705912     0.36800
N461        N  0.98494272  0.62975280  0.72188626    -0.89800
H462        H  0.04067137  0.71919471  0.70446901     0.17900
H463        H  0.07105935  0.66711964  0.87871104     0.17900
N464        N  0.12399953  0.75622374  0.86297203    -0.88800
H465        H  0.98356885  0.64625484  0.68677609     0.35300
H466        H  0.95657139  0.61902501  0.74322711     0.40400
H467        H  0.12556381  0.73996017  0.89816329     0.40000
H468        H  0.11604874  0.77950068  0.87604705     0.34900
C469        C  0.30228408  0.93728518  0.74687080    -0.26800
C470        C  0.31705992  0.92670823  0.79475532    -0.14900
C471        C  0.28636888  0.89109711  0.82850607     0.35700
C472        C  0.24222594  0.86917919  0.81579915    -0.26300
C473        C  0.22749756  0.88124986  0.76951726    -0.15500
C474        C  0.25805094  0.91483838  0.73383281     0.36800
N475        N  0.24521859  0.92604541  0.68355847    -0.89800
H476        H  0.32516554  0.96366930  0.71966365     0.17900
H477        H  0.21915169  0.84302778  0.84312859     0.17900
N478        N  0.29950973  0.87748700  0.87652619    -0.88800
H479        H  0.22641243  0.93939918  0.69254782     0.35300
H480        H  0.22645081  0.89603652  0.66039400     0.40400
H481        H  0.28798909  0.84273480  0.87260641     0.40000
H482        H  0.28498581  0.88178208  0.91059985     0.34900
C483        C  0.08510163  0.95044309  0.75879914    -0.26800
C484        C  0.05080900  0.93067451  0.79557113    -0.14900
C485        C  0.03754164  0.88800840  0.81898449     0.35700
C486        C  0.05912905  0.86643767  0.80626365    -0.26300
C487        C  0.09310487  0.88541582  0.76891278    -0.15500
C488        C  0.10585265  0.92766047  0.74417692     0.36800
N489        N  0.13930818  0.94696430  0.70409296    -0.89800
H490        H  0.09523911  0.98327042  0.74101584     0.17900
H491        H  0.04960560  0.83485584  0.82704702     0.17900
N492        N  0.00315843  0.86711230  0.85765837    -0.88800
H493        H  0.14464406  0.97796056  0.68991173     0.35300
H494        H  0.12823055  0.92458672  0.67029807     0.40400
H495        H  0.01530726  0.86265676  0.89458012     0.40000
H496        H  0.97934441  0.83486547  0.84236860     0.34900
C497        C  0.37337620  0.55951090  0.43303287    -0.26800
C498        C  0.39170407  0.59318498  0.47455265    -0.14900
C499        C  0.42546410  0.59715892  0.50797932     0.35700
C500        C  0.44257611  0.57049942  0.49593817    -0.26300
C501        C  0.42590273  0.53890830  0.45214856    -0.15500
C502        C  0.39005235  0.53238077  0.42169933     0.36800
N503        N  0.37240681  0.50053475  0.37663810    -0.89800
H504        H  0.34729358  0.55575873  0.40730557     0.17900
H505        H  0.46998335  0.57551108  0.51977614     0.17900
N506        N  0.44250731  0.62729379  0.55472052    -0.88800
H507        H  0.37491312  0.51848383  0.34094758     0.35300
H508        H  0.33961918  0.47725075  0.38371280     0.40400
H509        H  0.41696129  0.61960822  0.58040111     0.40000
H510        H  0.45693475  0.66102850  0.54181060     0.34900
C511        C  0.42612066  0.76416826  0.40135195    -0.26800
C512        C  0.42047320  0.75038523  0.45622454    -0.14900
C513        C  0.44461413  0.78325016  0.49780270     0.35700
C514        C  0.47180349  0.82958685  0.48415143    -0.26300
C515        C  0.47568405  0.84385063  0.42936533    -0.15500
C516        C  0.45382139  0.81037254  0.38736852     0.36800
N517        N  0.45929079  0.82359752  0.33063094    -0.89800
H518        H  0.40851933  0.73873973  0.36933231     0.17900
H519        H  0.48825491  0.85471618  0.51676832     0.17900
N520        N  0.44122695  0.77047814  0.55427162    -0.88800
H521        H  0.44089919  0.79507029  0.30497170     0.35300
H522        H  0.49164068  0.83718590  0.32121684     0.40400
H523        H  0.45024264  0.74669974  0.55800478     0.40000
H524        H  0.40889887  0.75458501  0.56539914     0.34900
C525        C  0.25367665  0.62079641  0.42051463    -0.26800
C526        C  0.26859230  0.61484139  0.47110349    -0.14900
C527        C  0.23798051  0.58535864  0.51008794     0.35700
C528        C  0.19363514  0.56136909  0.49670306    -0.26300
C529        C  0.17880924  0.56579844  0.44488385    -0.15500
C530        C  0.20949920  0.59642627  0.40683438     0.36800
N531        N  0.19634731  0.60121666  0.35291084    -0.89800
H532        H  0.27670250  0.64281211  0.39002531     0.17900
H533        H  0.17071292  0.53841359  0.52668358     0.17900
N534        N  0.25087115  0.57956653  0.56370219    -0.88800
H535        H  0.21136754  0.59204283  0.32424460     0.35300
H536        H  0.20727542  0.63562396  0.34720068     0.40400
H537        H  0.26988316  0.61173070  0.58235171     0.40000
H538        H  0.26942934  0.56518881  0.55998849     0.34900
C539        C  0.36424553  0.55033273  0.00051457    -0.26800
C540        C  0.38477817  0.55780159  0.94966990    -0.14900
C541        C  0.38722690  0.59170091  0.91483378     0.35700
C542        C  0.36867054  0.61630119  0.93064525    -0.26300
C543        C  0.34651281  0.60731839  0.98015892    -0.15500
C544        C  0.34503032  0.57449914  0.01578321     0.36800
N545        N  0.32364791  0.56526890  0.06728925    -0.89800
H546        H  0.36206255  0.52475596  0.02816126     0.17900
H547        H  0.36946108  0.64080822  0.90234167     0.17900
N548        N  0.40653632  0.59984160  0.86198072    -0.88800
H549        H  0.34601030  0.57134314  0.09855103     0.35300
H550        H  0.29918086  0.53060498  0.06790494     0.40400
H551        H  0.44021401  0.13527591  0.86267522     0.40000
H552        H  0.39518276  0.09917780  0.82507296     0.34900
C553        C  0.36170091  0.82129379  0.98920844    -0.26800
C554        C  0.36744673  0.83315055  0.93339351    -0.14900
C555        C  0.35152781  0.79807031  0.89328284     0.35700
C556        C  0.33291906  0.75248566  0.90938474    -0.26300
C557        C  0.32983392  0.74112399  0.96502509    -0.15500
C558        C  0.34303536  0.77551884  0.00522679     0.36800
N559        N  0.33841016  0.76414870  0.06226528    -0.89800
H560        H  0.37376940  0.84780008  0.02052610     0.17900
H561        H  0.32151080  0.72589144  0.87826316     0.17900
N562        N  0.35447583  0.80869904  0.83605832    -0.88800
H563        H  0.36901636  0.78271001  0.08105369     0.35300
H564        H  0.31941279  0.77484663  0.07969987     0.40400
H565        H  0.32324292  0.79082800  0.81902684     0.40000
H566        H  0.37204697  0.79679737  0.81720865     0.34900
C567        C  0.17402019  0.59709782  0.01082496    -0.26800
C568        C  0.20091456  0.58480541  0.98640747    -0.14900
C569        C  0.18211636  0.54621153  0.95068943     0.35700
C570        C  0.13755474  0.52201377  0.93936991    -0.26300
C571        C  0.11186654  0.53722910  0.95960938    -0.15500
C572        C  0.12999678  0.57438169  0.99663949     0.36800
N573        N  0.10408400  0.58997423  0.01851497    -0.89800
H574        H  0.18773333  0.62617832  0.03868160     0.17900
H575        H  0.12365005  0.49380286  0.91015145     0.17900
N576        N  0.20852228  0.53375417  0.92251182    -0.88800
H577        H  0.11791192  0.62413186  0.00751058     0.35300
H578        H  0.10522149  0.58858530  0.06137515     0.40400
H579        H  0.22814043  0.56021133  0.89570138     0.40000
H580        H  0.18954391  0.50449310  0.89813358     0.34900
C581        C  0.75038797  0.11878434  0.99239990     0.02600
C582        C  0.77044419  0.16644449  0.98771704    -0.13500
C583        C  0.81550150  0.19513696  0.98415616     0.00100
C584        C  0.84079026  0.17584674  0.98566601    -0.12000
C585        C  0.82149551  0.12839714  0.99190011     0.02600
C586        C  0.77644165  0.10059678  0.99712666    -0.11500
H587        H  0.75092188  0.18099374  0.98229518     0.08200
H588        H  0.87530359  0.19762467  0.97976909     0.05700
H589        H  0.76122469  0.06403249  0.00072552     0.05600
C590        C  0.81742226  0.13832151  0.48147611     0.02600
C591        C  0.84667540  0.18541632  0.47410116    -0.13500
C592        C  0.89116304  0.20347471  0.47116233     0.00100
C593        C  0.90645600  0.17437831  0.47510939    -0.12000
C594        C  0.87795714  0.12744016  0.48392091     0.02600
C595        C  0.83343101  0.10970220  0.48688543    -0.11500
H596        H  0.83469117  0.20763892  0.46798385     0.08200
H597        H  0.94023411  0.18805079  0.46753113     0.05700
H598        H  0.81099464  0.07308856  0.48958386     0.05600
C599        C  0.68022188  0.35762641  0.76080520     0.02600
C600        C  0.65547822  0.30950494  0.76200523    -0.13500
C601        C  0.61023633  0.28519242  0.75938830     0.00100
C602        C  0.58972544  0.30894664  0.75115904    -0.12000
C603        C  0.61332862  0.35703505  0.75311110     0.02600
C604        C  0.65862274  0.38102262  0.75864496    -0.11500
H605        H  0.67125984  0.29087376  0.76759330     0.08200
H606        H  0.55477048  0.28975554  0.74850466     0.05700
H607        H  0.67671061  0.41757075  0.76562857     0.05600
C608        C  0.74313380  0.36666691  0.24831522     0.02600
C609        C  0.71961626  0.31877575  0.24595490    -0.13500
C610        C  0.67498199  0.29331120  0.25301251     0.00100
C611        C  0.65280465  0.31601886  0.25447452    -0.12000
C612        C  0.67560808  0.36415737  0.25441735     0.02600
C613        C  0.72091995  0.38918942  0.25079385    -0.11500
H614        H  0.73675216  0.30131121  0.24520270     0.08200
H615        H  0.61809177  0.29621244  0.25911408     0.05700
H616        H  0.73910610  0.42609194  0.25490044     0.05600
O617        O  0.55237950  0.49459288  0.81891718    -0.80600
O618        O  0.87907003  0.44679864  0.85166353    -0.80700
O619        O  0.92252683  0.39592531  0.87683962    -0.80700
O620        O  0.94870970  0.97600959  0.76541662    -0.80600
O621        O  0.89864270  0.41602105  0.94388549    -0.80700
O622        O  0.51917759  0.03258771  0.76403050    -0.80700
O623        O  0.89030025  0.49565199  0.78562486    -0.80600
O624        O  0.48971184  0.42956934  0.82172306    -0.80700
C625        C  0.52847027  0.45204560  0.80704672     1.09100
C626        C  0.86457901  0.45901448  0.81082801     1.08900
C627        C  0.89719809  0.38420350  0.91615230     1.09100
C628        C  0.98648263  0.50016751  0.73550820     1.09000
O629        O  0.52167255  0.08378124  0.86159945    -0.80600
O630        O  0.96792733  0.50644160  0.97559335    -0.80700
O631        O  0.54658653  0.97644965  0.92051509    -0.80700
O632        O  0.92211873  0.03567831  0.89058169    -0.80600
O633        O  0.88291596  0.98654626  0.95554427    -0.80700
O634        O  0.55780258  0.04529055  0.92021098    -0.80700
O635        O  0.47499246  0.06294590  0.79483260    -0.80600
O636        O  0.47520271  0.44727700  0.97969555    -0.80700
Co637      Co  0.53577322  0.03801975  0.84437588     1.51500
Co638      Co  0.92766307  0.48034387  0.91237899     1.51700
Co639      Co  0.48055153  0.43814391  0.89839333     1.54600
Co640      Co  0.93537311  0.00160796  0.82968833     1.51500
O641        O  0.97782582  0.49055958  0.86870645    -1.42600
C642        C  0.50662107  0.09476108  0.82219554     1.09000
C643        C  0.97725322  0.48090143  0.00105688     1.09100
C644        C  0.56916767  0.01841949  0.93496656     1.09000
C645        C  0.89632607  0.02429252  0.93178862     1.09000
O646        O  0.61233106  0.50748846  0.29205143    -0.80600
O647        O  0.94026567  0.43941387  0.31496898    -0.80700
O648        O  0.02320719  0.42467260  0.44203320    -0.80700
O649        O  0.01685400  0.03798885  0.26541042    -0.80600
O650        O  0.97785014  0.40297864  0.37343821    -0.80700
O651        O  0.53078972  0.98231306  0.26429630    -0.80700
O652        O  0.94549581  0.50535543  0.31476553    -0.80600
O653        O  0.57566583  0.45632689  0.35602184    -0.80700
C654        C  0.60215003  0.47045482  0.31515134     1.09100
C655        C  0.92522153  0.46327705  0.30141911     1.08900
C656        C  0.99402486  0.39271562  0.41209219     1.09100
C657        C  0.01933913  0.50799578  0.23557894     1.09000
O658        O  0.59491420  0.07408329  0.29612865    -0.80600
O659        O  0.97457827  0.44995505  0.47307081    -0.80700
O660        O  0.60989378  0.00156580  0.45682998    -0.80700
O661        O  0.99177189  0.05176165  0.42031734    -0.80600
O662        O  0.93421812  0.98183396  0.42168515    -0.80700
O663        O  0.61827245  0.04850603  0.38943691    -0.80700
O664        O  0.56773558  0.09319668  0.36052673    -0.80600
O665        O  0.54285066  0.51024663  0.48093118    -0.80700
Co666      Co  0.57030160  0.01139679  0.32826129     1.51500
Co667      Co  0.95979101  0.44536940  0.39159384     1.51700
Co668      Co  0.55875438  0.48734996  0.41706432     1.51600
Co669      Co  0.00619309  0.04454333  0.34531767     1.51500
O670        O  0.01771099  0.49793347  0.36817585    -1.42600
C671        C  0.59418875  0.10517392  0.32227550     1.09000
C672        C  0.00537393  0.48347730  0.50043570     1.09100
C673        C  0.63412963  0.03829843  0.43084708     1.09000
C674        C  0.95336125  0.02407477  0.43444235     1.09000
C675        C  0.53340687  0.01824153  0.65535203    -0.26800
C676        C  0.99015970  0.49371670  0.67554619    -0.14900
C677        C  0.95378943  0.46715210  0.64056243     0.35700
C678        C  0.95936323  0.46430985  0.58384953    -0.26300
C679        C  0.00068569  0.48769744  0.56064373    -0.15500
C680        C  0.53965820  0.01664786  0.59886565     0.36800
N681        N  0.58274478  0.04047849  0.57842982    -0.89800
H682        H  0.56157227  0.03792634  0.68191484     0.17900
H683        H  0.93100801  0.44401567  0.55778171     0.17900
N684        N  0.91103575  0.44364688  0.66198777    -0.88800
H685        H  0.59970249  0.02802575  0.59846314     0.35300
H686        H  0.59763589  0.07507780  0.58869443     0.40400
H687        H  0.89616214  0.40884041  0.65288013     0.40000
H688        H  0.89368551  0.45550119  0.64169283     0.34900
C689        C  0.49014790  0.95202935  0.09330698    -0.26800
C690        C  0.98914797  0.48897111  0.06075571    -0.14900
C691        C  0.99751221  0.52875179  0.08871337     0.35700
C692        C  0.00701287  0.53395586  0.14535817    -0.26300
C693        C  0.00870967  0.50040758  0.17555813    -0.15500
C694        C  0.49919496  0.95694563  0.15037529     0.36800
N695        N  0.49889392  0.92101042  0.18008153    -0.89800
H696        H  0.48365510  0.92125945  0.07259344     0.17900
H697        H  0.01341955  0.56485964  0.16564055     0.17900
N698        N  0.99682953  0.56434545  0.05994325    -0.88800
H699        H  0.49296284  0.89447914  0.15351276     0.35300
H700        H  0.47302074  0.90721887  0.20704814     0.40400
H701        H  0.02709736  0.59456713  0.06506659     0.40000
H702        H  0.97385728  0.56905471  0.07807329     0.34900
C703        C  0.61575906  0.18546121  0.33774775    -0.26800
C704        C  0.61907217  0.15391688  0.30542876    -0.14900
C705        C  0.64223154  0.16892247  0.25594004     0.35700
C706        C  0.65903229  0.21412798  0.23855751    -0.26300
C707        C  0.65394658  0.24485094  0.27000248    -0.15500
C708        C  0.63338090  0.23066262  0.32111365     0.36800
N709        N  0.63124560  0.26245931  0.35667505    -0.89800
H710        H  0.59904421  0.17483110  0.37640806     0.17900
H711        H  0.67636656  0.22559727  0.20037848     0.17900
N712        N  0.64815110  0.13833367  0.22312342    -0.88800
H713        H  0.66287719  0.28750461  0.36882289     0.35300
H714        H  0.61474266  0.24654595  0.39250336     0.40400
H715        H  0.66792094  0.13077615  0.24573469     0.40000
H716        H  0.66486100  0.15444863  0.18739511     0.34900
C717        C  0.81923689  0.43179638  0.23065032    -0.26800
C718        C  0.79033160  0.39196154  0.25968011    -0.14900
C719        C  0.80651846  0.37709597  0.30191004     0.35700
C720        C  0.85075670  0.40000272  0.31196052    -0.26300
C721        C  0.87978444  0.43927725  0.28292827    -0.15500
C722        C  0.86408820  0.45601759  0.24236721     0.36800
N723        N  0.89350338  0.49709950  0.21344856    -0.89800
H724        H  0.80681799  0.44388217  0.19900766     0.17900
H725        H  0.86233205  0.38806829  0.34491706     0.17900
N726        N  0.77796540  0.33984914  0.33663214    -0.88800
H727        H  0.87670336  0.50474160  0.18505047     0.35300
H728        H  0.91378764  0.49080489  0.19084169     0.40400
H729        H  0.78354172  0.35192109  0.37718477     0.40000
H730        H  0.78571464  0.31500887  0.33397313     0.34900
C731        C  0.66399230  0.42786582  0.23637235    -0.26800
C732        C  0.65352151  0.38877585  0.26640980    -0.14900
C733        C  0.62565688  0.37665803  0.31130677     0.35700
C734        C  0.60877913  0.40317757  0.32497471    -0.26300
C735        C  0.61953842  0.44268404  0.29566763    -0.15500
C736        C  0.64795335  0.45512643  0.25067884     0.36800
N737        N  0.66226305  0.49566577  0.21948667    -0.89800
H738        H  0.68582244  0.43804119  0.20222189     0.17900
H739        H  0.58828605  0.39344275  0.36042691     0.17900
N740        N  0.61615334  0.33884703  0.34531508    -0.88800
H741        H  0.67881955  0.52406002  0.24569993     0.35300
H742        H  0.63537550  0.49414150  0.20188842     0.40400
H743        H  0.58265200  0.31612858  0.34548342     0.40000
H744        H  0.62658221  0.35105779  0.38542537     0.34900
C745        C  0.55246568  0.20386711  0.73791628    -0.26800
C746        C  0.58392984  0.23625488  0.77464280    -0.14900
C747        C  0.58780609  0.22250847  0.82774574     0.35700
C748        C  0.56071400  0.17660436  0.84264138    -0.26300
C749        C  0.52972228  0.14361145  0.80572907    -0.15500
C750        C  0.52552499  0.15756245  0.75259217     0.36800
N751        N  0.49522257  0.12473116  0.71305980    -0.89800
H752        H  0.54924286  0.21477347  0.69744178     0.17900
H753        H  0.56431454  0.16647253  0.88342657     0.17900
N754        N  0.61912325  0.25534201  0.86654927    -0.88800
H755        H  0.49807189  0.14023700  0.67517848     0.35300
H756        H  0.46423027  0.11326463  0.72684032     0.40400
H757        H  0.61832273  0.23958376  0.90350877     0.40000
H758        H  0.61033346  0.27866724  0.87565450     0.34900
C759        C  0.80213050  0.44355745  0.75027394    -0.26800
C760        C  0.81800126  0.43030603  0.79446201    -0.14900
C761        C  0.78839400  0.39115811  0.82455800     0.35700
C762        C  0.74403680  0.36869908  0.81295435    -0.26300
C763        C  0.72794237  0.38289952  0.77021971    -0.15500
C764        C  0.75780596  0.41999783  0.73731667     0.36800
N765        N  0.74455281  0.43333503  0.68913954    -0.89800
H766        H  0.82425836  0.47261992  0.72556401     0.17900
H767        H  0.72194430  0.33998578  0.83815709     0.17900
N768        N  0.80291415  0.37384233  0.86720025    -0.88800
H769        H  0.72579472  0.44621112  0.70024609     0.35300
H770        H  0.72611335  0.40454118  0.66387344     0.40400
H771        H  0.79262295  0.34013416  0.85712523     0.40000
H772        H  0.78824888  0.37357142  0.90379749     0.34900
C773        C  0.58239886  0.44650499  0.75091320    -0.26800
C774        C  0.54741318  0.42644211  0.78682144    -0.14900
C775        C  0.53301989  0.38280557  0.80823735     0.35700
C776        C  0.55442663  0.36100883  0.79530589    -0.26300
C777        C  0.58989416  0.38090912  0.76030572    -0.15500
C778        C  0.60336776  0.42376223  0.73657405     0.36800
N779        N  0.63817781  0.44403446  0.69836714    -0.89800
H780        H  0.59343662  0.47993513  0.73430736     0.17900
H781        H  0.54408910  0.32890022  0.81523497     0.17900
N782        N  0.49808968  0.36132675  0.84604082    -0.88800
H783        H  0.64400665  0.47540093  0.68480241     0.35300
H784        H  0.62828121  0.42250442  0.66386781     0.40400
H785        H  0.50961747  0.35588750  0.88284428     0.40000
H786        H  0.47430866  0.32949144  0.82965568     0.34900
C787        C  0.87406467  0.06079906  0.44017304    -0.26800
C788        C  0.89372677  0.09613588  0.47957353    -0.14900
C789        C  0.92966133  0.10254738  0.51044496     0.35700
C790        C  0.94722617  0.07647714  0.49772573    -0.26300
C791        C  0.92889457  0.04304834  0.45604841    -0.15500
C792        C  0.89116375  0.03421238  0.42836374     0.36800
N793        N  0.87185369  0.00051064  0.38536136    -0.89800
H794        H  0.84654113  0.05530037  0.41617070     0.17900
H795        H  0.97606508  0.08318365  0.51949027     0.17900
N796        N  0.94834614  0.13429987  0.55556569    -0.88800
H797        H  0.87187978  0.01674264  0.34920575     0.35300
H798        H  0.83972553  0.97687787  0.39541437     0.40400
H799        H  0.92386233  0.12716328  0.58295005     0.40000
H800        H  0.96201379  0.16754525  0.54142433     0.34900
C801        C  0.92542081  0.26368116  0.40104269    -0.26800
C802        C  0.92119659  0.25172928  0.45650272    -0.14900
C803        C  0.94557518  0.28572537  0.49671503     0.35700
C804        C  0.97203767  0.33144414  0.48101928    -0.26300
C805        C  0.97432730  0.34395265  0.42571311    -0.15500
C806        C  0.95189859  0.30944842  0.38508058     0.36800
N807        N  0.95536494  0.32112554  0.32791441    -0.89800
H808        H  0.90736751  0.23721369  0.37023715     0.17900
H809        H  0.98891200  0.35752421  0.51256329     0.17900
N810        N  0.94288342  0.27481200  0.55380257    -0.88800
H811        H  0.93658506  0.29185911  0.30353592     0.35300
H812        H  0.98747834  0.33500503  0.31693651     0.40400
H813        H  0.95211220  0.25131103  0.55894543     0.40000
H814        H  0.91068649  0.25920037  0.56539376     0.34900
C815        C  0.75554059  0.12355211  0.42233902    -0.26800
C816        C  0.77025191  0.11777766  0.47324696    -0.14900
C817        C  0.73958456  0.08963427  0.51278360     0.35700
C818        C  0.69531318  0.06545393  0.49916058    -0.26300
C819        C  0.68061478  0.06910146  0.44686282    -0.15500
C820        C  0.71132534  0.09971028  0.40881307     0.36800
N821        N  0.69811613  0.10523676  0.35527947    -0.89800
H822        H  0.77867668  0.14522595  0.39174495     0.17900
H823        H  0.67232044  0.04307079  0.52943269     0.17900
N824        N  0.75240253  0.08562819  0.56726053    -0.88800
H825        H  0.71288926  0.09622272  0.32606621     0.35300
H826        H  0.70932908  0.13980180  0.35027387     0.40400
H827        H  0.77117602  0.11840376  0.58452544     0.40000
H828        H  0.77125794  0.07150698  0.56524669     0.34900
C829        C  0.85765239  0.04404428  0.99879367    -0.26800
C830        C  0.88265696  0.05528309  0.95131238    -0.14900
C831        C  0.89197182  0.09456197  0.92176528     0.35700
C832        C  0.87383131  0.11948837  0.93776627    -0.26300
C833        C  0.84659290  0.10649682  0.98315496    -0.15500
C834        C  0.83992031  0.06934453  0.01506212     0.36800
N835        N  0.81497272  0.05700308  0.06395503    -0.89800
H836        H  0.85094323  0.01482118  0.02301876     0.17900
H837        H  0.87941241  0.14784889  0.91262508     0.17900
N838        N  0.91863445  0.10862402  0.87431981    -0.88800
H839        H  0.83446502  0.05878728  0.09685924     0.35300
H840        H  0.78920224  0.02303976  0.05968769     0.40400
H841        H  0.94919881  0.64477246  0.87122070     0.40000
H842        H  0.90600075  0.61036128  0.82999700     0.34900
C843        C  0.85617272  0.32237327  0.98598029    -0.26800
C844        C  0.87174438  0.33501342  0.93226180    -0.14900
C845        C  0.86750031  0.30070269  0.89606409     0.35700
C846        C  0.84965421  0.25585063  0.91439493    -0.26300
C847        C  0.83506338  0.24359575  0.96807726    -0.15500
C848        C  0.83785257  0.27697561  0.00400871     0.36800
N849        N  0.82325095  0.26515285  0.05921313    -0.89800
H850        H  0.85950987  0.34801012  0.01466046     0.17900
H851        H  0.84692976  0.23019550  0.88618972     0.17900
N852        N  0.88135477  0.31107270  0.84034786    -0.88800
H853        H  0.84932674  0.28592100  0.08576171     0.35300
H854        H  0.79964689  0.27272666  0.06541287     0.40400
H855        H  0.85481930  0.29012983  0.81449769     0.40000
H856        H  0.90451712  0.30286914  0.83410598     0.34900
C857        C  0.67513194  0.09940666  0.00976488    -0.26800
C858        C  0.70249857  0.08795985  0.98496022    -0.14900
C859        C  0.68391686  0.04962524  0.94890346     0.35700
C860        C  0.63930226  0.02444892  0.93798442    -0.26300
C861        C  0.61274851  0.03802005  0.95966667    -0.15500
C862        C  0.63072017  0.07529928  0.99669428     0.36800
N863        N  0.60408815  0.08935062  0.02014941    -0.89800
H864        H  0.68852639  0.12832121  0.03783397     0.17900
H865        H  0.62605936  0.99648210  0.90845978     0.17900
N866        N  0.71041090  0.03805559  0.91975094    -0.88800
H867        H  0.61670691  0.12338440  0.00947696     0.35300
H868        H  0.60608204  0.08789256  0.06289850     0.40400
H869        H  0.70561406  0.03991063  0.87762104     0.40000
H870        H  0.70001260  0.00425044  0.92879915     0.34900
C871        C  0.74924437  0.61529420  0.97607899     0.02600
C872        C  0.76752628  0.66260653  0.97333587    -0.13500
C873        C  0.81223913  0.69279271  0.97076300     0.00100
C874        C  0.83922137  0.67545916  0.97093048    -0.12000
C875        C  0.82142994  0.62803399  0.97509725     0.02600
C876        C  0.77641051  0.59851909  0.97837852    -0.11500
H877        H  0.74685729  0.67595719  0.96978552     0.08200
H878        H  0.87372401  0.69868768  0.96645768     0.05700
H879        H  0.76219811  0.56198236  0.97992070     0.05600
C880        C  0.81621431  0.63443600  0.48065775     0.02600
C881        C  0.84552732  0.68161107  0.47401559    -0.13500
C882        C  0.89029427  0.70019829  0.47495376     0.00100
C883        C  0.90561235  0.67115979  0.48154491    -0.12000
C884        C  0.87669039  0.62384714  0.48781461     0.02600
C885        C  0.83215103  0.60600828  0.48777224    -0.11500
H886        H  0.83351112  0.70358710  0.46602221     0.08200
H887        H  0.93977652  0.68503104  0.47704878     0.05700
H888        H  0.80969362  0.56931377  0.48907921     0.05600
C889        C  0.68012572  0.85688104  0.75294346     0.02600
C890        C  0.65435127  0.80900269  0.75718615    -0.13500
C891        C  0.60910629  0.78601539  0.75587287     0.00100
C892        C  0.58982850  0.81080068  0.74616956    -0.12000
C893        C  0.61491765  0.85872738  0.74488250     0.02600
C894        C  0.66004263  0.88155092  0.74768478    -0.11500
H895        H  0.66944343  0.78996542  0.76534759     0.08200
H896        H  0.55491893  0.79324254  0.74683384     0.05700
H897        H  0.67920474  0.91845577  0.75162729     0.05600
C898        C  0.74067364  0.86448961  0.25129318     0.02600
C899        C  0.71571642  0.81649424  0.24780193    -0.13500
C900        C  0.67136262  0.79226750  0.25772799     0.00100
C901        C  0.65074819  0.81635260  0.26347692    -0.12000
C902        C  0.67474745  0.86429468  0.26099521     0.02600
C903        C  0.71966377  0.88818169  0.25534156    -0.11500
H904        H  0.73164340  0.79787091  0.24452016     0.08200
H905        H  0.61670640  0.79808693  0.27292515     0.05700
H906        H  0.73843119  0.92511400  0.25922525     0.05600
O907        O  0.55701092  0.99723129  0.82150829    -0.80600
O908        O  0.87525158  0.94614544  0.85710014    -0.80700
O909        O  0.91828435  0.89502655  0.88164316    -0.80700
O910        O  0.95100226  0.47517819  0.76006760    -0.80600
O911        O  0.89435488  0.91471110  0.94914437    -0.80700
O912        O  0.51741264  0.53497746  0.76481580    -0.80700
O913        O  0.88741200  0.99581852  0.79154111    -0.80600
O914        O  0.49554569  0.93078090  0.82177966    -0.80700
C915        C  0.53452581  0.95499558  0.80847454     1.09100
C916        C  0.86137400  0.95901595  0.81622000     1.08900
C917        C  0.89196292  0.88327611  0.91978142     1.09100
C918        C  0.98462619  0.00147324  0.74178169     1.09000
O919        O  0.52446317  0.58702271  0.86330531    -0.80600
O920        O  0.96351856  0.00451794  0.98189165    -0.80700
O921        O  0.54413288  0.47423692  0.91749480    -0.80700
O922        O  0.92685021  0.53769289  0.88321333    -0.80600
O923        O  0.88762336  0.48950582  0.94872678    -0.80700
O924        O  0.55759016  0.54394911  0.91926131    -0.80700
O925        O  0.47492391  0.56647996  0.79997606    -0.80600
O926        O  0.47387772  0.94394413  0.97827613    -0.80700
Co927      Co  0.53489466  0.53848274  0.84429385     1.51500
Co928      Co  0.92349630  0.97895821  0.91852939     1.51700
Co929      Co  0.48321438  0.93744602  0.89764072     1.54600
Co930      Co  0.93882919  0.50201781  0.82342283     1.51500
O931        O  0.97390068  0.98985995  0.87504566    -1.42600
C932        C  0.50733604  0.59805583  0.82643880     1.09000
C933        C  0.97332278  0.97916808  0.00681512     1.09100
C934        C  0.56795002  0.51590162  0.93209096     1.09000
C935        C  0.90091725  0.52691646  0.92403466     1.09000
O936        O  0.61359186  0.00784061  0.29216517    -0.80600
O937        O  0.93761889  0.93717170  0.32298796    -0.80700
O938        O  0.02258878  0.92244802  0.44669878    -0.80700
O939        O  0.01973739  0.54083574  0.26018768    -0.80600
O940        O  0.97597439  0.90126151  0.37974871    -0.80700
O941        O  0.52937875  0.48132890  0.26519764    -0.80700
O942        O  0.94328967  0.00324474  0.32174083    -0.80600
O943        O  0.57769183  0.95890398  0.35892220    -0.80700
C944        C  0.60356570  0.97177569  0.31775633     1.09100
C945        C  0.92257535  0.96096771  0.30920015     1.08900
C946        C  0.99265218  0.89059115  0.41726580     1.09100
C947        C  0.01734687  0.00578598  0.24057880     1.09000
O948        O  0.59301442  0.57295349  0.29826809    -0.80600
O949        O  0.97494769  0.94882011  0.48011564    -0.80700
O950        O  0.60880176  0.49762800  0.45481092    -0.80700
O951        O  0.99161811  0.55259536  0.41479925    -0.80600
O952        O  0.93443793  0.48222838  0.41386932    -0.80700
O953        O  0.61682105  0.54625216  0.39002152    -0.80700
O954        O  0.56517118  0.59144816  0.36260979    -0.80600
O955        O  0.54362314  0.01384109  0.47977184    -0.80700
Co956      Co  0.56881581  0.50988548  0.32906839     1.51500
Co957      Co  0.95880706  0.94415004  0.39894237     1.51700
Co958      Co  0.56002182  0.99032128  0.41761526     1.51600
Co959      Co  0.00781498  0.54652446  0.34000187     1.51500
O960        O  0.01654192  0.99631177  0.37373074    -1.42600
C961        C  0.59157499  0.60370366  0.32421992     1.09000
C962        C  0.00588581  0.98248145  0.50711409     1.09100
C963        C  0.63300395  0.53471806  0.42960008     1.09000
C964        C  0.95323831  0.52398544  0.42864032     1.09000
C965        C  0.53051508  0.52458937  0.65467380    -0.26800
C966        C  0.98959399  0.99536080  0.68196820    -0.14900
C967        C  0.96457040  0.95287974  0.65433932     0.35700
C968        C  0.97001175  0.94948462  0.59757088    -0.26300
C969        C  0.00088601  0.98760138  0.56732233    -0.15500
C970        C  0.53700257  0.52127127  0.59850346     0.36800
N971        N  0.57904479  0.55112970  0.57640993    -0.89800
H972        H  0.55775652  0.55011625  0.67931439     0.17900
H973        H  0.95043396  0.91648449  0.57734236     0.17900
N974        N  0.93461076  0.91273267  0.68401266    -0.88800
H975        H  0.60092813  0.54598137  0.59789013     0.35300
H976        H  0.58787493  0.58483320  0.58338704     0.40400
H977        H  0.94363444  0.88901063  0.67982694     0.40000
H978        H  0.90402800  0.89874280  0.66576814     0.34900
C979        C  0.48944315  0.45367471  0.09452963    -0.26800
C980        C  0.98656592  0.98778752  0.06603055    -0.14900
C981        C  0.98805781  0.02335938  0.09642683     0.35700
C982        C  0.99825062  0.02839641  0.15277781    -0.26300
C983        C  0.00747654  0.99895175  0.18037667    -0.15500
C984        C  0.49746695  0.45749556  0.15160755     0.36800
N985        N  0.49333608  0.41964864  0.18145997    -0.89800
H986        H  0.48017506  0.42193453  0.07387007     0.17900
H987        H  0.99870635  0.05571058  0.17500257     0.17900
N988        N  0.97908702  0.05454381  0.07065961    -0.88800
H989        H  0.48553948  0.39249934  0.15486135     0.35300
H990        H  0.46726089  0.40784234  0.20782083     0.40400
H991        H  0.00610730  0.08764679  0.07621710     0.40000
H992        H  0.95312530  0.05253969  0.09065366     0.34900
C993        C  0.61950260  0.68532353  0.34390579    -0.26800
C994        C  0.61548562  0.65222870  0.30663032    -0.14900
C995        C  0.62953271  0.66543164  0.25205577     0.35700
C996        C  0.64664437  0.71109209  0.23624710    -0.26300
C997        C  0.64960726  0.74357799  0.27349997    -0.15500
C998        C  0.63637290  0.73054097  0.32790907     0.36800
N999        N  0.64095352  0.76351855  0.36748625    -0.89800
H1000       H  0.60906872  0.67600237  0.38587585     0.17900
H1001       H  0.65771872  0.72146758  0.19470151     0.17900
N1002       N  0.62506564  0.63239722  0.21236762    -0.88800
H1003       H  0.66072076  0.76485760  0.39975459     0.35300
H1004       H  0.61047567  0.75210495  0.38318855     0.40400
H1005       H  0.64667486  0.62288041  0.22385917     0.40000
H1006       H  0.63443895  0.64710470  0.17358108     0.34900
C1007       C  0.81693251  0.93099492  0.23803847    -0.26800
C1008       C  0.78795526  0.88877312  0.26277738    -0.14900
C1009       C  0.80388646  0.87171634  0.30282999     0.35700
C1010       C  0.84821111  0.89496655  0.31380458    -0.26300
C1011       C  0.87722351  0.93690483  0.28930859    -0.15500
C1012       C  0.86143430  0.95578690  0.25187581     0.36800
N1013       N  0.89033562  0.99995585  0.22872780    -0.89800
H1014       H  0.80471558  0.94491845  0.20858108     0.17900
H1015       H  0.85993695  0.88144737  0.34455821     0.17900
N1016       N  0.77481892  0.83209377  0.33449813    -0.88800
H1017       H  0.87345180  0.00914352  0.20251488     0.35300
H1018       H  0.91219369  0.99741458  0.20451607     0.40400
H1019       H  0.75621228  0.84021028  0.35793267     0.40000
H1020       H  0.79179722  0.82418245  0.36234271     0.34900
C1021       C  0.64065492  0.90707185  0.23317552    -0.26800
C1022       C  0.65469473  0.89004450  0.27494401    -0.14900
C1023       C  0.65212119  0.90009985  0.33011944     0.35700
C1024       C  0.63489314  0.92643710  0.34299041    -0.26300
C1025       C  0.62106874  0.94394532  0.30139067    -0.15500
C1026       C  0.62412902  0.93415481  0.24579931     0.36800
N1027       N  0.60975116  0.95017755  0.20153797    -0.89800
H1028       H  0.64297096  0.89965833  0.19059052     0.17900
H1029       H  0.63316648  0.93404555  0.38571739     0.17900
N1030       N  0.66774799  0.88417914  0.37305013    -0.88800
H1031       H  0.62839024  0.98584300  0.20167387     0.35300
H1032       H  0.57755870  0.93928036  0.20812688     0.40400
H1033       H  0.64232134  0.86432429  0.39963985     0.40000
H1034       H  0.69193999  0.91261352  0.39507794     0.34900
C1035       C  0.54619313  0.70585923  0.74282843    -0.26800
C1036       C  0.58184783  0.73816707  0.77481398    -0.14900
C1037       C  0.58899018  0.72571575  0.82711423     0.35700
C1038       C  0.56287411  0.68020347  0.84402369    -0.26300
C1039       C  0.52869654  0.64690159  0.81067119    -0.15500
C1040       C  0.51911201  0.66048314  0.76045416     0.36800
N1041       N  0.48272342  0.62818017  0.72686776    -0.89800
H1042       H  0.53965913  0.71609583  0.70376026     0.17900
H1043       H  0.56972557  0.67062157  0.88333753     0.17900
N1044       N  0.62248412  0.75948280  0.86310485    -0.88800
H1045       H  0.48121464  0.64342219  0.69056484     0.35300
H1046       H  0.45484402  0.61903624  0.74841728     0.40400
H1047       H  0.62351775  0.74477378  0.90006083     0.40000
H1048       H  0.61444080  0.78330367  0.87303602     0.34900
C1049       C  0.80225520  0.93897554  0.74757133    -0.26800
C1050       C  0.81529819  0.93054520  0.79837410    -0.14900
C1051       C  0.78359975  0.89641769  0.83261570     0.35700
C1052       C  0.74009495  0.87227043  0.81599422    -0.26300
C1053       C  0.72702578  0.88141519  0.76590441    -0.15500
C1054       C  0.75867600  0.91488256  0.73104530     0.36800
N1055       N  0.74775959  0.92432077  0.67815757    -0.89800
H1056       H  0.82602791  0.96470919  0.72050750     0.17900
H1057       H  0.71613509  0.84701732  0.84335421     0.17900
N1058       N  0.79500494  0.88698382  0.88518871    -0.88800
H1059       H  0.72819642  0.93736227  0.68306187     0.35300
H1060       H  0.73048871  0.89370788  0.65574866     0.40400
H1061       H  0.78478679  0.85245862  0.88589124     0.40000
H1062       H  0.77823602  0.89253333  0.91524031     0.34900
C1063       C  0.58285992  0.94669654  0.74446256    -0.26800
C1064       C  0.55506428  0.93120107  0.78936704    -0.14900
C1065       C  0.54724456  0.89247053  0.81833799     0.35700
C1066       C  0.56662537  0.86947959  0.80196936    -0.26300
C1067       C  0.59384900  0.88393253  0.75673560    -0.15500
C1068       C  0.60223967  0.92297093  0.72744791     0.36800
N1069       N  0.63009457  0.93811200  0.68091598    -0.89800
H1070       H  0.58893543  0.97670117  0.72253058     0.17900
H1071       H  0.56114645  0.84060422  0.82601973     0.17900
N1072       N  0.52073859  0.87727510  0.86603469    -0.88800
H1073       H  0.63274609  0.96716086  0.66396931     0.35300
H1074       H  0.61540622  0.91238249  0.65084184     0.40400
H1075       H  0.53938225  0.87807285  0.89941067     0.40000
H1076       H  0.49545574  0.84337937  0.85929788     0.34900
C1077       C  0.87347358  0.55938355  0.43934583    -0.26800
C1078       C  0.89198693  0.59226722  0.48172367    -0.14900
C1079       C  0.92633491  0.59609162  0.51368896     0.35700
C1080       C  0.94485422  0.57149522  0.49797847    -0.26300
C1081       C  0.92814394  0.54126086  0.45285323    -0.15500
C1082       C  0.89073788  0.53341260  0.42535297     0.36800
N1083       N  0.87182125  0.50123834  0.38070323    -0.89800
H1084       H  0.84669483  0.55534065  0.41492832     0.17900
H1085       H  0.97287326  0.57661607  0.52037468     0.17900
N1086       N  0.94212959  0.62344531  0.56281298    -0.88800
H1087       H  0.87209247  0.51865857  0.34552129     0.35300
H1088       H  0.83964917  0.47719841  0.39002305     0.40400
H1089       H  0.91611606  0.61272962  0.58893743     0.40000
H1090       H  0.95504058  0.65765630  0.55321777     0.34900
C1091       C  0.92101848  0.76141654  0.40566948    -0.26800
C1092       C  0.92055770  0.74865703  0.46027149    -0.14900
C1093       C  0.94832088  0.78217290  0.49941161     0.35700
C1094       C  0.97428263  0.82809260  0.48381029    -0.26300
C1095       C  0.97295153  0.84139115  0.42968174    -0.15500
C1096       C  0.94712596  0.80725097  0.38972995     0.36800
N1097       N  0.94668695  0.81928566  0.33330640    -0.89800
H1098       H  0.90036707  0.73544442  0.37548166     0.17900
H1099       H  0.99371917  0.85374635  0.51489232     0.17900
N1100       N  0.94932813  0.77075048  0.55565984    -0.88800
H1101       H  0.92565778  0.79036130  0.30956349     0.35300
H1102       H  0.97767571  0.83238121  0.31809360     0.40400
H1103       H  0.95836979  0.74690415  0.55714581     0.40000
H1104       H  0.91815255  0.75547040  0.57102514     0.34900
C1105       C  0.75457298  0.61810673  0.41968509    -0.26800
C1106       C  0.76912421  0.61340011  0.47131734    -0.14900
C1107       C  0.73838017  0.58535775  0.51085382     0.35700
C1108       C  0.69419429  0.56126629  0.49721664    -0.26300
C1109       C  0.67961455  0.56453699  0.44476104    -0.15500
C1110       C  0.71035234  0.59387047  0.40596056     0.36800
N1111       N  0.69710463  0.59750471  0.35157622    -0.89800
H1112       H  0.77779913  0.63917376  0.38885186     0.17900
H1113       H  0.67113434  0.53933867  0.52770376     0.17900
N1114       N  0.75103478  0.58129773  0.56541077    -0.88800
H1115       H  0.71194898  0.58754839  0.32364265     0.35300
H1116       H  0.70825366  0.63181965  0.34458549     0.40400
H1117       H  0.77016984  0.61405422  0.58255919     0.40000
H1118       H  0.76937577  0.56655477  0.56364000     0.34900
C1119       C  0.86064689  0.54677428  0.98802592    -0.26800
C1120       C  0.88672889  0.55803008  0.94166589    -0.14900
C1121       C  0.89602576  0.59694496  0.91105110     0.35700
C1122       C  0.87680046  0.62133865  0.92495736    -0.26300
C1123       C  0.84824715  0.60786980  0.96891653    -0.15500
C1124       C  0.84157448  0.57122911  0.00188209     0.36800
N1125       N  0.81484588  0.55822915  0.04918405    -0.89800
H1126       H  0.85380828  0.51787206  0.01298943     0.17900
H1127       H  0.88239813  0.64940078  0.89918828     0.17900
N1128       N  0.92360725  0.61101641  0.86451022    -0.88800
H1129       H  0.83339413  0.56052728  0.08351305     0.35300
H1130       H  0.78974632  0.52403459  0.04421477     0.40400
H1131       H  0.94478025  0.14207895  0.88106923     0.40000
H1132       H  0.90063281  0.10870758  0.84070877     0.34900
C1133       C  0.85352718  0.81921168  0.98677839    -0.26800
C1134       C  0.86380466  0.83386575  0.93218586    -0.14900
C1135       C  0.85344231  0.80095866  0.89046646     0.35700
C1136       C  0.83690461  0.75535356  0.90423873    -0.26300
C1137       C  0.82953366  0.74139947  0.95893764    -0.15500
C1138       C  0.83617160  0.77306005  0.00032321     0.36800
N1139       N  0.82630544  0.75863775  0.05613116    -0.89800
H1140       H  0.86099625  0.84387269  0.01928270     0.17900
H1141       H  0.83001833  0.73067084  0.87196363     0.17900
N1142       N  0.86019608  0.81387464  0.83386697    -0.88800
H1143       H  0.85453042  0.77803225  0.07988568     0.35300
H1144       H  0.80381556  0.76604353  0.06959444     0.40400
H1145       H  0.83059901  0.79457312  0.81281876     0.40000
H1146       H  0.88129449  0.80540430  0.81783192     0.34900
C1147       C  0.67544042  0.59364520  0.00211064    -0.26800
C1148       C  0.70167091  0.58370380  0.97173925    -0.14900
C1149       C  0.68212953  0.54644513  0.93404311     0.35700
C1150       C  0.63709843  0.52100387  0.92688652    -0.26300
C1151       C  0.61167725  0.53378233  0.95379556    -0.15500
C1152       C  0.63080445  0.56959017  0.99260519     0.36800
N1153       N  0.60509988  0.58244412  0.02119770    -0.89800
H1154       H  0.68990346  0.62165195  0.03159264     0.17900
H1155       H  0.62228118  0.49388499  0.89619979     0.17900
N1156       N  0.70796977  0.53649616  0.90033089    -0.88800
H1157       H  0.61696248  0.61670689  0.01269685     0.35300
H1158       H  0.60902022  0.57974314  0.06335622     0.40400
H1159       H  0.72577213  0.56427181  0.87427313     0.40000
H1160       H  0.68848061  0.50806102  0.87503342     0.34900
loop_ 
_geom_bond_atom_site_label_1 
_geom_bond_atom_site_label_2 
_geom_bond_distance 
_geom_bond_site_symmetry_2 
_ccdc_geom_bond_type 
C1            C2   1.403       .  A
C1            C6   1.402       .  A
C1          C278   1.491       .  S
C2            C3   1.408       .  A
C2            H7   1.084       .  S
C3            C4   1.415       .  A
C3          C267   1.498       .  S
C4            C5   1.414       .  A
C4            H8   1.083       .  S
C5            C6   1.404       .  A
C5          C253   1.496       .  S
C6            H9   1.083       .  S
C10          C11   1.409       .  A
C10          C15   1.405       .  A
C10         C236   1.491       .  S
C11          C12   1.407       .  A
C11          H16   1.084       .  S
C12          C13   1.399       .  A
C12         C222   1.482       .  S
C13          C14   1.405       .  A
C13          H17   1.083       .  S
C14          C15   1.407       .  A
C14         C208   1.487       .  S
C15          H18   1.083       .  S
C19          C20   1.404       .  A
C19          C24   1.402       .  A
C19         C183   1.474       .  S
C20          C21   1.404       .  A
C20          H25   1.084       .  S
C21          C22   1.399       .  A
C21         C166   1.487       .  S
C22          C23   1.407       .  A
C22          H26   1.084       .  S
C23          C24   1.402       .  A
C23         C197   1.486       .  S
C24          H27   1.083       .  S
C28          C29   1.404       .  A
C28          C33   1.405       .  A
C28         C138   1.487       .  S
C29          C30   1.400       .  A
C29          H34   1.084       .  S
C30          C31   1.406       .  A
C30         C127   1.487       .  S
C31          C32   1.407       .  A
C31          H35   1.084       .  S
C32          C33   1.406       .  A
C32         C152   1.486       .  S
C33          H36   1.084       .  S
O37          C45   1.273       .  A
O37        Co347   2.031       .  S
O38          C46   1.299       .  A
O38         Co58   2.105       .  S
O39          C47   1.253       .  A
O39        Co639   1.967       .  S
O40         C338   1.271       .  A
O40         Co60   1.977       .  S
O41          C47   1.266       .  A
O41         Co58   2.034       .  S
O42         C918   1.279   1_455  A
O42         Co57   2.030       .  S
O43          C46   1.271       .  A
O43        Co350   1.883       .  S
O44          C45   1.258   1_655  A
O44         Co59   1.952       .  S
C45         C194   1.471       .  S
C46         C180   1.477       .  S
C47         C264   1.479       .  S
C48          C96   1.500       .  S
C48         O330   1.275       .  A
C48         O912   1.274       .  A
O49          C62   1.257       .  A
O49         Co57   1.964       .  S
O50          C63   1.270   1_556  A
O50         Co58   1.963       .  S
O51          C64   1.273   1_565  A
O51        Co349   2.027   1_455  S
O52          C65   1.297       .  A
O52         Co60   2.110   1_545  S
O53          C65   1.270   1_565  A
O53        Co348   1.898       .  S
O54          C64   1.260       .  A
O54         Co57   1.969       .  S
O55          C62   1.268   1_655  A
O55        Co640   2.019       .  S
O56         C643   1.281   1_556  A
O56         Co59   2.035       .  S
Co57        O327   2.032   1_545  S
Co57        O931   2.022   1_445  S
Co58        O343   1.893       .  S
Co58         O61   1.997       .  S
Co59        O619   1.957       .  S
Co59        O341   2.018   1_655  S
Co59        O641   2.002       .  S
Co60        O333   1.894       .  S
Co60        O635   2.023   1_565  S
Co60        O351   1.998       .  S
O61        Co927   2.026       .  S
O61        Co639   2.014       .  S
O61        Co350   1.991       .  S
C62         C169   1.489       .  S
C63         C110   1.490       .  S
C63         O636   1.282   1_554  A
C64         C281   1.473       .  S
C65         C250   1.496       .  S
O66          C74   1.264       .  A
O66        Co376   1.890       .  S
O67          C75   1.259       .  A
O67         Co87   1.957       .  S
O68          C76   1.266       .  A
O68        Co668   2.022       .  S
O69         C367   1.281       .  A
O69         Co89   2.031       .  S
O70          C76   1.256       .  A
O70         Co87   1.975       .  S
O71         C947   1.270   1_565  A
O71         Co86   1.972   1_565  S
O72          C75   1.274       .  A
O72        Co379   2.031       .  S
O73          C74   1.300       .  A
O73         Co88   2.122       .  S
C74         C155   1.493       .  S
C75         C141   1.475       .  S
C76         C225   1.479       .  S
C77         C113   1.487       .  S
C77         O359   1.277       .  A
C77         O941   1.269       .  A
O78          C91   1.265       .  A
O78         Co86   2.021       .  S
O79          C92   1.280       .  A
O79         Co87   2.029       .  S
O80          C93   1.272   1_565  A
O80        Co378   1.899       .  S
O81          C94   1.263       .  A
O81         Co89   1.967       .  S
O82          C94   1.274   1_565  A
O82        Co377   2.024       .  S
O83          C93   1.299       .  A
O83         Co86   2.109       .  S
O84          C91   1.255       .  A
O84        Co669   1.961       .  S
O85         C672   1.271       .  A
O85         Co88   1.972       .  S
Co86        O356   1.889       .  S
Co86        O960   2.005   1_545  S
Co87        O372   2.038       .  S
Co87         O90   2.018       .  S
Co88        O648   2.018       .  S
Co88        O370   1.899       .  S
Co88        O670   2.003       .  S
Co89        O362   2.025       .  S
Co89        O664   1.964       .  S
Co89        O380   2.023   1_545  S
O90        Co956   2.000       .  S
O90        Co668   2.006       .  S
O90        Co379   2.027       .  S
C91         C124   1.489       .  S
C92          C99   1.500       .  S
C92         O665   1.273       .  A
C93         C239   1.494       .  S
C94         C211   1.473       .  S
C95         C100   1.409       .  A
C95         C966   1.408   1_445  A
C95         H102   1.084       .  S
C96          C97   1.411       .  A
C96         C965   1.411       .  A
C97          C98   1.409       .  A
C97         N104   1.432       .  S
C98          C99   1.410       .  A
C98         H103   1.083       .  S
C99         C970   1.413       .  A
C100        C969   1.412   1_545  A
C100        N101   1.432       .  S
N101        H105   1.045       .  S
N101        H106   1.046       .  S
N104        H107   1.046       .  S
N104        H108   1.045       .  S
C109        C114   1.406   1_655  A
C109        C980   1.407       .  A
C109        H116   1.083       .  S
C110        C111   1.416       .  A
C110        C979   1.408       .  A
C111        C112   1.404       .  A
C111        N118   1.439       .  S
C112        C113   1.405       .  A
C112        H117   1.083       .  S
C113        C984   1.413       .  A
C114        C983   1.414       .  A
C114        N115   1.432       .  S
N115        H119   1.045       .  S
N115        H120   1.046   1_455  S
N118        H121   1.045       .  S
N118        H122   1.045       .  S
C123        C124   1.406       .  A
C123        C128   1.401       .  A
C123        H130   1.083       .  S
C124        C125   1.416       .  A
C125        C126   1.411       .  A
C125        N132   1.438       .  S
C126        C127   1.406       .  A
C126        H131   1.084       .  S
C127        C128   1.411       .  A
C128        N129   1.438       .  S
N129        H133   1.045       .  S
N129        H134   1.047       .  S
N132        H135   1.045       .  S
N132        H136   1.046       .  S
C137        C138   1.408       .  A
C137        C142   1.413       .  A
C137        H144   1.083       .  S
C138        C139   1.414       .  A
C139        C140   1.396       .  A
C139        N146   1.440       .  S
C140        C141   1.400       .  A
C140        H145   1.084       .  S
C141        C142   1.409       .  A
C142        N143   1.437       .  S
N143        H147   1.046       .  S
N143        H148   1.045       .  S
N146        H149   1.045       .  S
N146        H150   1.047       .  S
C151        C152   1.402       .  A
C151        C156   1.404       .  A
C151        H158   1.084       .  S
C152        C153   1.408       .  A
C153        C154   1.403       .  A
C153        N160   1.432       .  S
C154        C155   1.407       .  A
C154        H159   1.084       .  S
C155        C156   1.423       .  A
C156        N157   1.432       .  S
N157        H161   1.046       .  S
N157        H162   1.045       .  S
N160        H163   1.045       .  S
N160        H164   1.046       .  S
C165        C166   1.405       .  A
C165        C170   1.409       .  A
C165        H172   1.083       .  S
C166        C167   1.412       .  A
C167        C168   1.403       .  A
C167        N174   1.439       .  S
C168        C169   1.408       .  A
C168        H173   1.084       .  S
C169        C170   1.414       .  A
C170        N171   1.437   1_455  S
N171        H175   1.045       .  S
N171        H176   1.046       .  S
N174        H177   1.046       .  S
N174        H178   1.046       .  S
C179        C180   1.405       .  A
C179        C184   1.400       .  A
C179        H186   1.084       .  S
C180        C181   1.412       .  A
C181        C182   1.399       .  A
C181        N188   1.433       .  S
C182        C183   1.400       .  A
C182        H187   1.084       .  S
C183        C184   1.412       .  A
C184        N185   1.432       .  S
N185        H189   1.044       .  S
N185        H190   1.046       .  S
N188        H191   1.045       .  S
N188        H192   1.045       .  S
C193        C194   1.405       .  A
C193        C198   1.414       .  A
C193        H200   1.084       .  S
C194        C195   1.408       .  A
C195        C196   1.386       .  A
C195        N202   1.434       .  S
C196        C197   1.402       .  A
C196        H201   1.084       .  S
C197        C198   1.417       .  A
C198        N199   1.437       .  S
N199        H203   1.046       .  S
N199        H204   1.045       .  S
N202        H205   1.046       .  S
N202        H206   1.045   1_455  S
C207        C208   1.405       .  A
C207        C212   1.398       .  A
C207        H214   1.084       .  S
C208        C209   1.419       .  A
C209        C210   1.402       .  A
C209        N216   1.434       .  S
C210        C211   1.403       .  A
C210        H215   1.084       .  S
C211        C212   1.408       .  A
C212        N213   1.433   1_545  S
N213        H217   1.046   1_565  S
N213        H218   1.045       .  S
N216        H219   1.045       .  S
N216        H220   1.042       .  S
C221        C222   1.403       .  A
C221        C226   1.408       .  A
C221        H228   1.084       .  S
C222        C223   1.411       .  A
C223        C224   1.403       .  A
C223        N230   1.432       .  S
C224        C225   1.404       .  A
C224        H229   1.084       .  S
C225        C226   1.412       .  A
C226        N227   1.437       .  S
N227        H231   1.047       .  S
N227        H232   1.043       .  S
N230        H233   1.045       .  S
N230        H234   1.045       .  S
C235        C236   1.403       .  A
C235        C240   1.405       .  A
C235        H242   1.084       .  S
C236        C237   1.416       .  A
C237        C238   1.406       .  A
C237        N244   1.433       .  S
C238        C239   1.407       .  A
C238        H243   1.084       .  S
C239        C240   1.416       .  A
C240        N241   1.433       .  S
N241        H245   1.046       .  S
N241        H246   1.046       .  S
N244        H247   1.045       .  S
N244        H248   1.044       .  S
C249        C250   1.406       .  A
C249        C254   1.407   1_556  A
C249        H256   1.084   1_556  S
C250        C251   1.418       .  A
C251        C252   1.408       .  A
C251        N258   1.433       .  S
C252        C253   1.403       .  A
C252        H257   1.084       .  S
C253        C254   1.413   1_556  A
C254        N255   1.432       .  S
N255        H259   1.046       .  S
N255        H260   1.046       .  S
N258        H551   1.046       .  S
N258        H552   1.045       .  S
H261        N548   1.046       .  S
H262        N548   1.045       .  S
C263        C264   1.407       .  A
C263        C268   1.412       .  A
C263        H270   1.084   1_556  S
C264        C265   1.403       .  A
C265        C266   1.405       .  A
C265        N272   1.432       .  S
C266        C267   1.409       .  A
C266        H271   1.083       .  S
C267        C268   1.413       .  A
C268        N269   1.432   1_556  S
N269        H273   1.046       .  S
N269        H274   1.046       .  S
N272        H275   1.045       .  S
N272        H276   1.046       .  S
C277        C278   1.408   1_554  A
C277        C282   1.407   1_554  A
C277        H284   1.084       .  S
C278        C279   1.417       .  A
C279        C280   1.403       .  A
C279        N286   1.439       .  S
C280        C281   1.400       .  A
C280        H285   1.084       .  S
C281        C282   1.406       .  A
C282        N283   1.432   1_556  S
N283        H287   1.046       .  S
N283        H288   1.046       .  S
N286        H289   1.046       .  S
N286        H290   1.046       .  S
C291        C292   1.406       .  A
C291        C296   1.407       .  A
C291        C568   1.491       .  S
C292        C293   1.398       .  A
C292        H297   1.084       .  S
C293        C294   1.406       .  A
C293        C557   1.480       .  S
C294        C295   1.410       .  A
C294        H298   1.084       .  S
C295        C296   1.406       .  A
C295        C543   1.493       .  S
C296        H299   1.083   1_556  S
C300        C301   1.410       .  A
C300        C305   1.404       .  A
C300        C526   1.489       .  S
C301        C302   1.408       .  A
C301        H306   1.084       .  S
C302        C303   1.402       .  A
C302        C512   1.485       .  S
C303        C304   1.406       .  A
C303        H307   1.083       .  S
C304        C305   1.404       .  A
C304        C498   1.486       .  S
C305        H308   1.084       .  S
C309        C310   1.404       .  A
C309        C314   1.407       .  A
C309        C473   1.484       .  S
C310        C311   1.401       .  A
C310        H315   1.084       .  S
C311        C312   1.395       .  A
C311        C456   1.479       .  S
C312        C313   1.405       .  A
C312        H316   1.084       .  S
C313        C314   1.408       .  A
C313        C487   1.487       .  S
C314        H317   1.083       .  S
C318        C319   1.402       .  A
C318        C323   1.406       .  A
C318        C428   1.486       .  S
C319        C320   1.394       .  A
C319        H324   1.084       .  S
C320        C321   1.403       .  A
C320        C417   1.475       .  S
C321        C322   1.407       .  A
C321        H325   1.083       .  S
C322        C323   1.408       .  A
C322        C442   1.488       .  S
C323        H326   1.084       .  S
O327        C335   1.274       .  A
O328        C336   1.298       .  A
O328       Co348   2.110       .  S
O329        C337   1.256       .  A
O329       Co929   1.973       .  S
O330       Co350   1.995       .  S
O331        C337   1.267       .  A
O331       Co348   2.025       .  S
O332        C628   1.280   1_455  A
O332       Co347   2.027       .  S
O333        C336   1.270       .  A
O334        C335   1.255   1_655  A
O334       Co349   1.946       .  S
C335        C484   1.470       .  S
C336        C470   1.492       .  S
C337        C554   1.484       .  S
C338        C386   1.490       .  S
C338        O622   1.277   1_565  A
O339        C352   1.257       .  A
O339       Co347   1.963       .  S
O340        C353   1.272   1_546  A
O340       Co348   1.972   1_545  S
O341        C354   1.272       .  A
O342        C355   1.301       .  A
O342       Co350   2.127       .  S
O343        C355   1.267       .  A
O344        C354   1.262       .  A
O344       Co347   1.967       .  S
O345        C352   1.266   1_655  A
O345       Co930   2.015       .  S
O346        C933   1.280   1_556  A
O346       Co349   2.031       .  S
Co347       O641   2.022   1_455  S
Co348       O351   1.997       .  S
Co349       O909   1.960       .  S
Co349       O931   2.001       .  S
Co350       O925   2.010       .  S
O351       Co637   2.026   1_565  S
O351       Co929   2.011       .  S
C352        C459   1.486       .  S
C353        C400   1.497       .  S
C353        O926   1.281   1_554  A
C354        C571   1.472       .  S
C355        C540   1.497       .  S
O356        C364   1.265   1_545  A
O357        C365   1.259       .  A
O357       Co377   1.956       .  S
O358        C366   1.271       .  A
O358       Co958   2.038       .  S
O359       Co379   2.021       .  S
O360        C366   1.255       .  A
O360       Co377   1.960       .  S
O361        C657   1.271       .  A
O361       Co376   1.972       .  S
O362        C365   1.271   1_545  A
O363        C364   1.300       .  A
O363       Co378   2.120       .  S
C364        C445   1.496       .  S
C365        C431   1.474       .  S
C366        C515   1.488       .  S
C367        C403   1.497   1_545  S
C367        O651   1.270   1_545  A
O368        C381   1.263       .  A
O368       Co376   2.007       .  S
O369        C382   1.279       .  A
O369       Co377   2.027       .  S
O370        C383   1.271       .  A
O371        C384   1.260       .  A
O371       Co379   1.963       .  S
O372        C384   1.275       .  A
O373        C383   1.298       .  A
O373       Co376   2.112       .  S
O374        C381   1.256       .  A
O374       Co959   1.966       .  S
O375        C962   1.273   1_545  A
O375       Co378   1.986   1_545  S
Co376       O670   1.994       .  S
Co377       O380   2.008       .  S
Co378       O938   2.028       .  S
Co378       O960   2.007       .  S
Co379       O954   1.968       .  S
O380       Co666   1.998   1_565  S
O380       Co958   2.007       .  S
C381        C414   1.479       .  S
C382        C389   1.489       .  S
C382        O955   1.269   1_565  A
C383        C529   1.492       .  S
C384        C501   1.476       .  S
C385        C676   1.407   1_455  A
C385        C390   1.404       .  A
C385        H392   1.084       .  S
C386        C675   1.408   1_565  A
C386        C387   1.412       .  A
C387        C388   1.405       .  A
C387        N394   1.432       .  S
C388        C389   1.407       .  A
C388        H393   1.084       .  S
C389        C680   1.413   1_565  A
C390        C679   1.413       .  A
C390        N391   1.433       .  S
N391        H395   1.046       .  S
N391        H396   1.045       .  S
N394        H397   1.046       .  S
N394        H398   1.046       .  S
C399        C690   1.407       .  A
C399        C404   1.406   1_655  A
C399        H406   1.083       .  S
C400        C689   1.409       .  A
C400        C401   1.412   1_565  A
C401        C402   1.403       .  A
C401        N408   1.432       .  S
C402        C403   1.406   1_545  A
C402        H407   1.083       .  S
C403        C694   1.417       .  A
C404        C693   1.413       .  A
C404        N405   1.432       .  S
N405        H409   1.046       .  S
N405        H410   1.045   1_455  S
N408        H411   1.046       .  S
N408        H412   1.046       .  S
C413        C414   1.404       .  A
C413        C418   1.397       .  A
C413        H420   1.084       .  S
C414        C415   1.417       .  A
C415        C416   1.408       .  A
C415        N422   1.438       .  S
C416        C417   1.402       .  A
C416        H421   1.084       .  S
C417        C418   1.406       .  A
C418        N419   1.433       .  S
N419        H423   1.045       .  S
N419        H424   1.046       .  S
N422        H425   1.045       .  S
N422        H426   1.046       .  S
C427        C428   1.407       .  A
C427        C432   1.411       .  A
C427        H434   1.083       .  S
C428        C429   1.416       .  A
C429        C430   1.395       .  A
C429        N436   1.440       .  S
C430        C431   1.400       .  A
C430        H435   1.084       .  S
C431        C432   1.410       .  A
C432        N433   1.437       .  S
N433        H437   1.045   1_565  S
N433        H438   1.046       .  S
N436        H439   1.045       .  S
N436        H440   1.046       .  S
C441        C442   1.403       .  A
C441        C446   1.402       .  A
C441        H448   1.084       .  S
C442        C443   1.409       .  A
C443        C444   1.403       .  A
C443        N450   1.433       .  S
C444        C445   1.408       .  A
C444        H449   1.084       .  S
C445        C446   1.423       .  A
C446        N447   1.432       .  S
N447        H451   1.045   1_565  S
N447        H452   1.046       .  S
N450        H453   1.045       .  S
N450        H454   1.046       .  S
C455        C456   1.403       .  A
C455        C460   1.409       .  A
C455        H462   1.084       .  S
C456        C457   1.409       .  A
C457        C458   1.399       .  A
C457        N464   1.439       .  S
C458        C459   1.407       .  A
C458        H463   1.083       .  S
C459        C460   1.416       .  A
C460        N461   1.437   1_455  S
N461        H465   1.045       .  S
N461        H466   1.046       .  S
N464        H467   1.044       .  S
N464        H468   1.047       .  S
C469        C470   1.409       .  A
C469        C474   1.404       .  A
C469        H476   1.083       .  S
C470        C471   1.416       .  A
C471        C472   1.401       .  A
C471        N478   1.433       .  S
C472        C473   1.402       .  A
C472        H477   1.084       .  S
C473        C474   1.413       .  A
C474        N475   1.433       .  S
N475        H479   1.044       .  S
N475        H480   1.046       .  S
N478        H481   1.045       .  S
N478        H482   1.046       .  S
C483        C484   1.402       .  A
C483        C488   1.411       .  A
C483        H490   1.084       .  S
C484        C485   1.411       .  A
C485        C486   1.390       .  A
C485        N492   1.435       .  S
C486        C487   1.403       .  A
C486        H491   1.084       .  S
C487        C488   1.416       .  A
C488        N489   1.437       .  S
N489        H493   1.045       .  S
N489        H494   1.046       .  S
N492        H495   1.046       .  S
N492        H496   1.045   1_455  S
C497        C498   1.405       .  A
C497        C502   1.401       .  A
C497        H504   1.084       .  S
C498        C499   1.416       .  A
C499        C500   1.403       .  A
C499        N506   1.433       .  S
C500        C501   1.404       .  A
C500        H505   1.084       .  S
C501        C502   1.409       .  A
C502        N503   1.432       .  S
N503        H507   1.046       .  S
N503        H508   1.046       .  S
N506        H509   1.045       .  S
N506        H510   1.044       .  S
C511        C512   1.400       .  A
C511        C516   1.407       .  A
C511        H518   1.084       .  S
C512        C513   1.413       .  A
C513        C514   1.406       .  A
C513        N520   1.432       .  S
C514        C515   1.406       .  A
C514        H519   1.084       .  S
C515        C516   1.418       .  A
C516        N517   1.439       .  S
N517        H521   1.046       .  S
N517        H522   1.045       .  S
N520        H523   1.045       .  S
N520        H524   1.046       .  S
C525        C526   1.401       .  A
C525        C530   1.403       .  A
C525        H532   1.084       .  S
C526        C527   1.417       .  A
C527        C528   1.406       .  A
C527        N534   1.433       .  S
C528        C529   1.408       .  A
C528        H533   1.084       .  S
C529        C530   1.415       .  A
C530        N531   1.433       .  S
N531        H535   1.046       .  S
N531        H536   1.046       .  S
N534        H537   1.045       .  S
N534        H538   1.044       .  S
C539        C540   1.410   1_554  A
C539        C544   1.409       .  A
C539        H546   1.084       .  S
C540        C541   1.415       .  A
C541        C542   1.406       .  A
C541        N548   1.432       .  S
C542        C543   1.404       .  A
C542        H547   1.084       .  S
C543        C544   1.411   1_556  A
C544        N545   1.433       .  S
N545        H549   1.046       .  S
N545        H550   1.045       .  S
C553        C554   1.406       .  A
C553        C558   1.409   1_556  A
C553        H560   1.084   1_556  S
C554        C555   1.412       .  A
C555        C556   1.404       .  A
C555        N562   1.432       .  S
C556        C557   1.401       .  A
C556        H561   1.084       .  S
C557        C558   1.407   1_556  A
C558        N559   1.432       .  S
N559        H563   1.046       .  S
N559        H564   1.045       .  S
N562        H565   1.046       .  S
N562        H566   1.046       .  S
C567        C568   1.408   1_554  A
C567        C572   1.403   1_554  A
C567        H574   1.084       .  S
C568        C569   1.419       .  A
C569        C570   1.403       .  A
C569        N576   1.439       .  S
C570        C571   1.401       .  A
C570        H575   1.084       .  S
C571        C572   1.406       .  A
C572        N573   1.433   1_556  S
N573        H577   1.045       .  S
N573        H578   1.046       .  S
N576        H579   1.045       .  S
N576        H580   1.046       .  S
C581        C582   1.409       .  A
C581        C586   1.405       .  A
C581        C858   1.496       .  S
C582        C583   1.404       .  A
C582        H587   1.084       .  S
C583        C584   1.408       .  A
C583        C847   1.486       .  S
C584        C585   1.409       .  A
C584        H588   1.084       .  S
C585        C586   1.406       .  A
C585        C833   1.494       .  S
C586        H589   1.081   1_556  S
C590        C591   1.406       .  A
C590        C595   1.406       .  A
C590        C816   1.487       .  S
C591        C592   1.404       .  A
C591        H596   1.084       .  S
C592        C593   1.398       .  A
C592        C802   1.475       .  S
C593        C594   1.403       .  A
C593        H597   1.083       .  S
C594        C595   1.407       .  A
C594        C788   1.486       .  S
C595        H598   1.083       .  S
C599        C600   1.409       .  A
C599        C604   1.409       .  A
C599        C763   1.493       .  S
C600        C601   1.402       .  A
C600        H605   1.084       .  S
C601        C602   1.397       .  A
C601        C746   1.484       .  S
C602        C603   1.408       .  A
C602        H606   1.084       .  S
C603        C604   1.408       .  A
C603        C777   1.494       .  S
C604        H607   1.081       .  S
C608        C609   1.402       .  A
C608        C613   1.403       .  A
C608        C718   1.484       .  S
C609        C610   1.396       .  A
C609        H614   1.084       .  S
C610        C611   1.407       .  A
C610        C707   1.487       .  S
C611        C612   1.410       .  A
C611        H615   1.083       .  S
C612        C613   1.408       .  A
C612        C732   1.492       .  S
C613        H616   1.084       .  S
O617        C625   1.278       .  A
O617       Co927   2.044       .  S
O618        C626   1.296       .  A
O618       Co638   2.100       .  S
O619        C627   1.252       .  A
O620        C918   1.274   1_565  A
O620       Co640   1.992   1_565  S
O621        C627   1.270       .  A
O621       Co638   2.044       .  S
O622       Co637   2.019       .  S
O623        C626   1.270       .  A
O623       Co930   1.898       .  S
O624        C625   1.259       .  A
O624       Co639   1.953       .  S
C625        C774   1.481       .  S
C626        C760   1.492       .  S
C627        C844   1.496       .  S
C628        C676   1.496       .  S
C628        O910   1.272       .  A
O629        C642   1.258       .  A
O629       Co637   1.964       .  S
O630        C643   1.269   1_556  A
O630       Co638   1.966       .  S
O631        C644   1.275   1_565  A
O631       Co929   2.033       .  S
O632        C645   1.299       .  A
O632       Co640   2.115       .  S
O633        C645   1.269   1_565  A
O633       Co928   1.889       .  S
O634        C644   1.260       .  A
O634       Co637   1.966       .  S
O635        C642   1.268       .  A
O636       Co639   2.034       .  S
Co637       O907   2.031   1_545  S
Co638       O923   1.895       .  S
Co638       O641   2.002       .  S
Co639       O921   2.015       .  S
Co640       O913   1.892   1_545  S
Co640       O931   1.991   1_545  S
O641       Co930   1.998       .  S
C642        C749   1.490       .  S
C643        C690   1.494       .  S
C644        C861   1.479       .  S
C645        C830   1.491       .  S
O646        C654   1.265       .  A
O646       Co956   1.887       .  S
O647        C655   1.260       .  A
O647       Co667   1.959       .  S
O648        C656   1.268   1_455  A
O649        C947   1.279       .  A
O649       Co669   2.027       .  S
O650        C656   1.256       .  A
O650       Co667   1.965       .  S
O651       Co666   1.976   1_565  S
O652        C655   1.271       .  A
O652       Co959   2.024   1_655  S
O653        C654   1.302       .  A
O653       Co668   2.121       .  S
C654        C735   1.494       .  S
C655        C721   1.471       .  S
C656        C805   1.480       .  S
C657        C693   1.493       .  S
C657        O939   1.280       .  A
O658        C671   1.265       .  A
O658       Co666   2.018       .  S
O659        C672   1.280   1_655  A
O659       Co667   2.032       .  S
O660        C673   1.271       .  A
O660       Co958   1.897   1_545  S
O661        C674   1.261       .  A
O661       Co669   1.962   1_655  S
O662        C674   1.275   1_565  A
O662       Co957   2.030       .  S
O663        C673   1.299       .  A
O663       Co666   2.112       .  S
O664        C671   1.256       .  A
O665       Co668   1.979       .  S
Co666       O936   1.890       .  S
Co667       O952   2.024       .  S
Co667       O670   2.011   1_655  S
Co668       O950   1.896       .  S
Co669       O942   2.030   1_455  S
Co669       O960   2.026   1_545  S
O670       Co959   2.026       .  S
C671        C704   1.488       .  S
C672        C679   1.495       .  S
C673        C819   1.492       .  S
C674        C791   1.473       .  S
C675        C680   1.404       .  A
C675        H682   1.084       .  S
C676        C677   1.414       .  A
C677        C678   1.410       .  A
C677        N684   1.432       .  S
C678        C679   1.409   1_655  A
C678        H683   1.084       .  S
C680        N681   1.433       .  S
N681        H685   1.046       .  S
N681        H686   1.045       .  S
N684        H687   1.046       .  S
N684        H688   1.046       .  S
C689        C694   1.413       .  A
C689        H696   1.083       .  S
C690        C691   1.414       .  A
C691        C692   1.405   1_655  A
C691        N698   1.433       .  S
C692        C693   1.407       .  A
C692        H697   1.084       .  S
C694        N695   1.438       .  S
N695        H699   1.046       .  S
N695        H700   1.046       .  S
N698        H701   1.046   1_655  S
N698        H702   1.046       .  S
C703        C704   1.406       .  A
C703        C708   1.401       .  A
C703        H710   1.083       .  S
C704        C705   1.415       .  A
C705        C706   1.411       .  A
C705        N712   1.437       .  S
C706        C707   1.406       .  A
C706        H711   1.084       .  S
C707        C708   1.411       .  A
C708        N709   1.438       .  S
N709        H713   1.047       .  S
N709        H714   1.044       .  S
N712        H715   1.045       .  S
N712        H716   1.046       .  S
C717        C718   1.409       .  A
C717        C722   1.414       .  A
C717        H724   1.083       .  S
C718        C719   1.411       .  A
C719        C720   1.390       .  A
C719        N726   1.434       .  S
C720        C721   1.399       .  A
C720        H725   1.085       .  S
C721        C722   1.411       .  A
C722        N723   1.437       .  S
N723        H727   1.046       .  S
N723        H728   1.046       .  S
N726        H729   1.046       .  S
N726        H730   1.046       .  S
C731        C732   1.405       .  A
C731        C736   1.403       .  A
C731        H738   1.084       .  S
C732        C733   1.411       .  A
C733        C734   1.401       .  A
C733        N740   1.431       .  S
C734        C735   1.405       .  A
C734        H739   1.083       .  S
C735        C736   1.424       .  A
C736        N737   1.432       .  S
N737        H741   1.045       .  S
N737        H742   1.046       .  S
N740        H743   1.045       .  S
N740        H744   1.046       .  S
C745        C746   1.403       .  A
C745        C750   1.411       .  A
C745        H752   1.084       .  S
C746        C747   1.410       .  A
C747        C748   1.403       .  A
C747        N754   1.439       .  S
C748        C749   1.407       .  A
C748        H753   1.084       .  S
C749        C750   1.417       .  A
C750        N751   1.437       .  S
N751        H755   1.046       .  S
N751        H756   1.045       .  S
N754        H757   1.046       .  S
N754        H758   1.045       .  S
C759        C760   1.407       .  A
C759        C764   1.404       .  A
C759        H766   1.084       .  S
C760        C761   1.415       .  A
C761        C762   1.401       .  A
C761        N768   1.433       .  S
C762        C763   1.404       .  A
C762        H767   1.084       .  S
C763        C764   1.419       .  A
C764        N765   1.433       .  S
N765        H769   1.041       .  S
N765        H770   1.046       .  S
N768        H771   1.046       .  S
N768        H772   1.046       .  S
C773        C774   1.405       .  A
C773        C778   1.414       .  A
C773        H780   1.084       .  S
C774        C775   1.412       .  A
C775        C776   1.392       .  A
C775        N782   1.434       .  S
C776        C777   1.403       .  A
C776        H781   1.083       .  S
C777        C778   1.418       .  A
C778        N779   1.437       .  S
N779        H783   1.045       .  S
N779        H784   1.046       .  S
N782        H785   1.046       .  S
N782        H786   1.046       .  S
C787        C788   1.404       .  A
C787        C792   1.399       .  A
C787        H794   1.084       .  S
C788        C789   1.418       .  A
C789        C790   1.402       .  A
C789        N796   1.433       .  S
C790        C791   1.402       .  A
C790        H795   1.084       .  S
C791        C792   1.409       .  A
C792        N793   1.432       .  S
N793        H797   1.045       .  S
N793        H798   1.046   1_545  S
N796        H799   1.046       .  S
N796        H800   1.042       .  S
C801        C802   1.399       .  A
C801        C806   1.404       .  A
C801        H808   1.084       .  S
C802        C803   1.410       .  A
C803        C804   1.401       .  A
C803        N810   1.432       .  S
C804        C805   1.405       .  A
C804        H809   1.084       .  S
C805        C806   1.416       .  A
C806        N807   1.438       .  S
N807        H811   1.046       .  S
N807        H812   1.046       .  S
N810        H813   1.045       .  S
N810        H814   1.046       .  S
C815        C816   1.402       .  A
C815        C820   1.403       .  A
C815        H822   1.084       .  S
C816        C817   1.414       .  A
C817        C818   1.405       .  A
C817        N824   1.433       .  S
C818        C819   1.408       .  A
C818        H823   1.084       .  S
C819        C820   1.416       .  A
C820        N821   1.433       .  S
N821        H825   1.045       .  S
N821        H826   1.046       .  S
N824        H827   1.046       .  S
N824        H828   1.044       .  S
C829        C830   1.407       .  A
C829        C834   1.406   1_556  A
C829        H836   1.084   1_556  S
C830        C831   1.415       .  A
C831        C832   1.404       .  A
C831        N838   1.433       .  S
C832        C833   1.405       .  A
C832        H837   1.083       .  S
C833        C834   1.412   1_556  A
C834        N835   1.433       .  S
N835        H839   1.046       .  S
N835        H840   1.046       .  S
N838       H1131   1.046       .  S
N838       H1132   1.046       .  S
H841       N1128   1.046       .  S
H842       N1128   1.046       .  S
C843        C844   1.409       .  A
C843        C848   1.414   1_556  A
C843        H850   1.083   1_556  S
C844        C845   1.419       .  A
C845        C846   1.402       .  A
C845        N852   1.433       .  S
C846        C847   1.398       .  A
C846        H851   1.084       .  S
C847        C848   1.409   1_556  A
C848        N849   1.431       .  S
N849        H853   1.045       .  S
N849        H854   1.046       .  S
N852        H855   1.046       .  S
N852        H856   1.045       .  S
C857        C858   1.408   1_554  A
C857        C862   1.407   1_554  A
C857        H864   1.084       .  S
C858        C859   1.418       .  A
C859        C860   1.402       .  A
C859        N866   1.433       .  S
C860        C861   1.401       .  A
C860        H865   1.085   1_545  S
C861        C862   1.409       .  A
C862        N863   1.432   1_556  S
N863        H867   1.046       .  S
N863        H868   1.046       .  S
N866        H869   1.046       .  S
N866        H870   1.045       .  S
C871        C872   1.403       .  A
C871        C876   1.401       .  A
C871       C1148   1.484       .  S
C872        C873   1.397       .  A
C872        H877   1.084       .  S
C873        C874   1.409       .  A
C873       C1137   1.479       .  S
C874        C875   1.412       .  A
C874        H878   1.083       .  S
C875        C876   1.405       .  A
C875       C1123   1.493       .  S
C876        H879   1.082       .  S
C880        C881   1.406       .  A
C880        C885   1.402       .  A
C880       C1106   1.486       .  S
C881        C882   1.407       .  A
C881        H886   1.084       .  S
C882        C883   1.402       .  A
C882       C1092   1.481       .  S
C883        C884   1.406       .  A
C883        H887   1.083       .  S
C884        C885   1.404       .  A
C884       C1078   1.485       .  S
C885        H888   1.084       .  S
C889        C890   1.407       .  A
C889        C894   1.404       .  A
C889       C1053   1.483       .  S
C890        C891   1.404       .  A
C890        H895   1.084       .  S
C891        C892   1.396       .  A
C891       C1036   1.483       .  S
C892        C893   1.404       .  A
C892        H896   1.085       .  S
C893        C894   1.402       .  A
C893       C1067   1.478       .  S
C894        H897   1.083       .  S
C898        C899   1.406       .  A
C898        C903   1.403       .  A
C898       C1008   1.489       .  S
C899        C900   1.400       .  A
C899        H904   1.084       .  S
C900        C901   1.406       .  A
C900        C997   1.483       .  S
C901        C902   1.405       .  A
C901        H905   1.084       .  S
C902        C903   1.402       .  A
C902       C1022   1.474       .  S
C903        H906   1.084       .  S
O907        C915   1.273       .  A
O908        C916   1.297       .  A
O908       Co928   2.103       .  S
O909        C917   1.252       .  A
O910       Co930   1.978       .  S
O911        C917   1.266       .  A
O911       Co928   2.033       .  S
O912       Co927   2.013       .  S
O913        C916   1.270       .  A
O914        C915   1.258       .  A
O914       Co929   1.951       .  S
C915       C1064   1.466       .  S
C916       C1050   1.486       .  S
C917       C1134   1.485       .  S
C918        C966   1.500   1_545  S
O919        C932   1.262       .  A
O919       Co927   1.975       .  S
O920        C933   1.268   1_546  A
O920       Co928   1.964   1_545  S
O921        C934   1.270       .  A
O922        C935   1.297       .  A
O922       Co930   2.109       .  S
O923        C935   1.271       .  A
O924        C934   1.259       .  A
O924       Co927   1.961       .  S
O925        C932   1.267       .  A
O926       Co929   2.031       .  S
Co928       O931   2.000       .  S
C932       C1039   1.489       .  S
C933        C980   1.492       .  S
C934       C1151   1.465       .  S
C935       C1120   1.495       .  S
O936        C944   1.266   1_545  A
O937        C945   1.260       .  A
O937       Co957   1.959       .  S
O938        C946   1.270   1_455  A
O939       Co959   2.031       .  S
O940        C946   1.255       .  A
O940       Co957   1.962       .  S
O941       Co956   1.971       .  S
O942        C945   1.272   1_545  A
O943        C944   1.296       .  A
O943       Co958   2.107       .  S
C944       C1025   1.477       .  S
C945       C1011   1.479       .  S
C946       C1095   1.487       .  S
C947        C983   1.493   1_545  S
O948        C961   1.266       .  A
O948       Co956   2.019       .  S
O949        C962   1.279   1_655  A
O949       Co957   2.036       .  S
O950        C963   1.269       .  A
O951        C964   1.264       .  A
O951       Co959   1.970   1_655  S
O952        C964   1.274       .  A
O953        C963   1.297       .  A
O953       Co956   2.105       .  S
O954        C961   1.257       .  A
O955       Co958   1.968   1_545  S
Co957       O960   2.016   1_655  S
C961        C994   1.488       .  S
C962        C969   1.502       .  S
C963       C1109   1.488       .  S
C964       C1081   1.472       .  S
C965        C970   1.407       .  A
C965        H972   1.083       .  S
C966        C967   1.412       .  A
C967        C968   1.413       .  A
C967        N974   1.432       .  S
C968        C969   1.411   1_655  A
C968        H973   1.084       .  S
C970        N971   1.433       .  S
N971        H975   1.046       .  S
N971        H976   1.045       .  S
N974        H977   1.046       .  S
N974        H978   1.046       .  S
C979        C984   1.408       .  A
C979        H986   1.083       .  S
C980        C981   1.414   1_565  A
C981        C982   1.403       .  A
C981        N988   1.433       .  S
C982        C983   1.407   1_645  A
C982        H987   1.083       .  S
C984        N985   1.438       .  S
N985        H989   1.045       .  S
N985        H990   1.046       .  S
N988        H991   1.045   1_655  S
N988        H992   1.046       .  S
C993        C994   1.406       .  A
C993        C998   1.401       .  A
C993       H1000   1.084       .  S
C994        C995   1.418       .  A
C995        C996   1.411       .  A
C995       N1002   1.438       .  S
C996        C997   1.403       .  A
C996       H1001   1.084       .  S
C997        C998   1.407       .  A
C998        N999   1.433       .  S
N999       H1003   1.046       .  S
N999       H1004   1.045       .  S
N1002      H1005   1.046       .  S
N1002      H1006   1.045       .  S
C1007      C1008   1.409       .  A
C1007      C1012   1.413       .  A
C1007      H1014   1.084       .  S
C1008      C1009   1.415       .  A
C1009      C1010   1.396       .  A
C1009      N1016   1.440       .  S
C1010      C1011   1.401       .  A
C1010      H1015   1.084       .  S
C1011      C1012   1.411       .  A
C1012      N1013   1.437       .  S
N1013      H1017   1.047   1_565  S
N1013      H1018   1.044       .  S
N1016      H1019   1.044       .  S
N1016      H1020   1.047       .  S
C1021      C1022   1.401       .  A
C1021      C1026   1.402       .  A
C1021      H1028   1.084       .  S
C1022      C1023   1.405       .  A
C1023      C1024   1.401       .  A
C1023      N1030   1.433       .  S
C1024      C1025   1.404       .  A
C1024      H1029   1.084       .  S
C1025      C1026   1.416       .  A
C1026      N1027   1.432       .  S
N1027      H1031   1.044       .  S
N1027      H1032   1.045       .  S
N1030      H1033   1.046       .  S
N1030      H1034   1.045       .  S
C1035      C1036   1.403       .  A
C1035      C1040   1.408       .  A
C1035      H1042   1.084       .  S
C1036      C1037   1.411       .  A
C1037      C1038   1.403       .  A
C1037      N1044   1.439       .  S
C1038      C1039   1.407       .  A
C1038      H1043   1.083       .  S
C1039      C1040   1.417       .  A
C1040      N1041   1.438       .  S
N1041      H1045   1.047       .  S
N1041      H1046   1.045       .  S
N1044      H1047   1.045       .  S
N1044      H1048   1.046       .  S
C1049      C1050   1.407       .  A
C1049      C1054   1.402       .  A
C1049      H1056   1.084       .  S
C1050      C1051   1.415       .  A
C1051      C1052   1.400       .  A
C1051      N1058   1.433       .  S
C1052      C1053   1.402       .  A
C1052      H1057   1.084       .  S
C1053      C1054   1.414       .  A
C1054      N1055   1.433       .  S
N1055      H1059   1.043       .  S
N1055      H1060   1.045       .  S
N1058      H1061   1.046       .  S
N1058      H1062   1.046       .  S
C1063      C1064   1.404       .  A
C1063      C1068   1.413       .  A
C1063      H1070   1.084       .  S
C1064      C1065   1.407       .  A
C1065      C1066   1.386       .  A
C1065      N1072   1.435       .  S
C1066      C1067   1.400       .  A
C1066      H1071   1.084       .  S
C1067      C1068   1.414       .  A
C1068      N1069   1.437       .  S
N1069      H1073   1.045       .  S
N1069      H1074   1.046       .  S
N1072      H1075   1.046       .  S
N1072      H1076   1.046       .  S
C1077      C1078   1.404       .  A
C1077      C1082   1.397       .  A
C1077      H1084   1.084       .  S
C1078      C1079   1.416       .  A
C1079      C1080   1.404       .  A
C1079      N1086   1.433       .  S
C1080      C1081   1.404       .  A
C1080      H1085   1.084       .  S
C1081      C1082   1.407       .  A
C1082      N1083   1.433       .  S
N1083      H1087   1.046       .  S
N1083      H1088   1.045       .  S
N1086      H1089   1.045       .  S
N1086      H1090   1.043       .  S
C1091      C1092   1.399       .  A
C1091      C1096   1.405       .  A
C1091      H1098   1.084       .  S
C1092      C1093   1.412       .  A
C1093      C1094   1.404       .  A
C1093      N1100   1.432       .  S
C1094      C1095   1.406       .  A
C1094      H1099   1.084       .  S
C1095      C1096   1.418       .  A
C1096      N1097   1.439       .  S
N1097      H1101   1.044       .  S
N1097      H1102   1.047       .  S
N1100      H1103   1.045       .  S
N1100      H1104   1.045       .  S
C1105      C1106   1.403       .  A
C1105      C1110   1.404       .  A
C1105      H1112   1.084       .  S
C1106      C1107   1.415       .  A
C1107      C1108   1.403       .  A
C1107      N1114   1.433       .  S
C1108      C1109   1.406       .  A
C1108      H1113   1.084       .  S
C1109      C1110   1.415       .  A
C1110      N1111   1.433       .  S
N1111      H1115   1.045       .  S
N1111      H1116   1.046       .  S
N1114      H1117   1.045       .  S
N1114      H1118   1.044       .  S
C1119      C1120   1.406       .  A
C1119      C1124   1.404   1_556  A
C1119      H1126   1.083   1_556  S
C1120      C1121   1.418       .  A
C1121      C1122   1.407       .  A
C1121      N1128   1.433       .  S
C1122      C1123   1.404       .  A
C1122      H1127   1.084       .  S
C1123      C1124   1.412   1_556  A
C1124      N1125   1.433       .  S
N1125      H1129   1.046       .  S
N1125      H1130   1.045       .  S
C1133      C1134   1.406       .  A
C1133      C1138   1.411   1_556  A
C1133      H1140   1.084   1_556  S
C1134      C1135   1.414       .  A
C1135      C1136   1.400       .  A
C1135      N1142   1.433       .  S
C1136      C1137   1.397       .  A
C1136      H1141   1.084       .  S
C1137      C1138   1.409   1_556  A
C1138      N1139   1.432       .  S
N1139      H1143   1.046       .  S
N1139      H1144   1.045       .  S
N1142      H1145   1.045       .  S
N1142      H1146   1.046       .  S
C1147      C1148   1.405   1_554  A
C1147      C1152   1.398   1_554  A
C1147      H1154   1.084       .  S
C1148      C1149   1.418       .  A
C1149      C1150   1.402       .  A
C1149      N1156   1.439       .  S
C1150      C1151   1.401       .  A
C1150      H1155   1.085       .  S
C1151      C1152   1.404       .  A
C1152      N1153   1.431   1_556  S
N1153      H1157   1.045       .  S
N1153      H1158   1.046       .  S
N1156      H1159   1.047       .  S
N1156      H1160   1.045       .  S
