geometry optimzed in LAMMPS
_audit_creation_date              2020-12-01 
_audit_creation_method            'lammps2cif' 
_symmetry_space_group_name_H-M    'P1' 
_symmetry_Int_Tables_number       1 
_symmetry_cell_setting            triclinic 
loop_ 
_symmetry_equiv_pos_as_xyz 
  x,y,z 
_cell_length_a                    38.543719 
_cell_length_b                    38.32568292106455 
_cell_length_c                    38.89728353461944 
_cell_angle_alpha                 89.98523544563436 
_cell_angle_beta                  89.9238673937839 
_cell_angle_gamma                 90.01860727484951 
loop_ 
_atom_site_label 
_atom_site_type_symbol 
_atom_site_fract_x 
_atom_site_fract_y 
_atom_site_fract_z 
_atom_site_charge 
O1          O  0.43215958  0.43862717  0.93136055    -0.74800
O2          O  0.46352675  0.47108288  0.89312590    -0.53700
C3          C  0.43985607  0.44886351  0.90082240     0.79000
O4          O  0.44791343  0.57303485  0.05433194    -0.59400
O5          O  0.47185971  0.53359852  0.09132673    -0.52400
C6          C  0.45338702  0.56061504  0.08471480     0.71000
O7          O  0.44142442  0.57481056  0.93757778    -0.73900
O8          O  0.47332876  0.54646361  0.89664740    -0.54500
C9          C  0.45059010  0.56896586  0.90625308     0.77000
O10         O  0.43066533  0.43597532  0.04695793    -0.59100
O11         O  0.46836418  0.45776937  0.08676210    -0.52200
C12         C  0.44183120  0.43961280  0.07786281     0.73600
Zr13       Zr  0.44997045  0.45266843  0.98972136     2.54700
O14         O  0.38724024  0.46019605  0.98889427    -0.79600
O15         O  0.44381869  0.38942993  0.98917535    -0.93000
Zr16       Zr  0.46026883  0.55587849  0.99460917     2.64700
O17         O  0.39734010  0.55860210  0.99948689    -0.98000
O18         O  0.46648272  0.61906880  0.99366172    -0.80100
O19         O  0.45419656  0.50593443  0.95895284    -0.83400
O20         O  0.45451533  0.50278714  0.02509144    -2.18100
O21         O  0.56728104  0.41936945  0.04581905    -0.66800
O22         O  0.54357918  0.45546351  0.08618896    -0.51400
C23         C  0.56229974  0.42936543  0.07707022     0.72000
O24         O  0.58528198  0.55874821  0.93437434    -0.59700
O25         O  0.54740237  0.53681404  0.89485443    -0.51700
C26         C  0.57453158  0.55420787  0.90330183     0.73800
O27         O  0.58169924  0.55928175  0.05090607    -0.71100
O28         O  0.54564207  0.53260461  0.08941466    -0.49800
C29         C  0.57115797  0.55271453  0.08166494     0.75100
O30         O  0.56604165  0.42449423  0.92955520    -0.66400
O31         O  0.54078459  0.46226953  0.89171647    -0.53600
C32         C  0.55989373  0.43573732  0.89895710     0.73500
Zr33       Zr  0.55281931  0.44183704  0.98856723     2.77500
O34         O  0.61592449  0.44018927  0.98616579    -0.97200
O35         O  0.54822339  0.37853716  0.98620562    -0.78000
Zr36       Zr  0.56346905  0.54545729  0.99231750     2.70100
O37         O  0.62651963  0.54305151  0.99512077    -0.79300
O38         O  0.56313978  0.60895162  0.99106761    -0.98300
Zr39       Zr  0.50629233  0.50200610  0.92632859     2.21500
Zr40       Zr  0.50722364  0.49614808  0.05604482     2.11100
O41         O  0.55934027  0.49224546  0.02338138    -2.47000
O42         O  0.55874858  0.49487268  0.95751848    -0.79100
O43         O  0.50149381  0.44486729  0.02215765    -0.71200
O44         O  0.51158703  0.55305850  0.96065458    -2.32200
O45         O  0.50109874  0.44793265  0.95611490    -2.28400
O46         O  0.51242926  0.55003403  0.02637878    -0.73000
H47         H  0.43477229  0.50410157  0.04034087     0.79000
H48         H  0.51349897  0.57369394  0.94651718     0.80100
H49         H  0.57931451  0.48977471  0.03814736     0.82300
H50         H  0.49892591  0.42865291  0.94028978     0.79900
H51         H  0.44342784  0.62800895  0.00063738     0.42900
H52         H  0.55182479  0.61586604  0.01289992     0.41900
H53         H  0.63161761  0.52097803  0.00734048     0.41600
H54         H  0.62359623  0.44740534  0.00937828     0.39500
H55         H  0.52482838  0.37411264  0.97667642     0.42700
H56         H  0.45659903  0.38170577  0.96844252     0.37400
H57         H  0.38261872  0.47436979  0.96811503     0.43600
H58         H  0.39141767  0.58307810  0.99387405     0.40000
H59         H  0.62164670  0.41503970  0.98486658     0.44900
H60         H  0.41908995  0.38538298  0.98354415     0.43600
H61         H  0.38868839  0.54492635  0.97967467     0.43800
H62         H  0.58776928  0.61561285  0.99404487     0.44100
O63         O  0.44376867  0.93994851  0.55586109    -0.74800
O64         O  0.47777439  0.89984575  0.52845347    -0.53700
C65         C  0.45278317  0.90844636  0.54860996     0.79000
O66         O  0.45057548  0.06009334  0.42332940    -0.59400
O67         O  0.47861767  0.10011166  0.45669231    -0.52400
C68         C  0.45767720  0.09152890  0.43247379     0.71000
O69         O  0.44295944  0.94307161  0.42650650    -0.73900
O70         O  0.47738271  0.90229682  0.45228531    -0.54500
C71         C  0.45269235  0.91146163  0.43198356     0.77000
O72         O  0.44727744  0.05761330  0.56243144    -0.59100
O73         O  0.47541052  0.09788275  0.52919988    -0.52200
C74         C  0.45349408  0.08907913  0.55254745     0.73600
Zr75       Zr  0.46487385  0.99902821  0.54459913     2.54700
O76         O  0.40192936  0.00054409  0.54946371    -0.79600
O77         O  0.47224321  0.99477586  0.60661698    -0.93000
Zr78       Zr  0.46373397  0.00099176  0.44204786     2.64700
O79         O  0.40092238  0.00729473  0.44439472    -0.98000
O80         O  0.46385030  0.99856365  0.37953227    -0.80100
O81         O  0.46297685  0.96648323  0.49268748    -0.83400
O82         O  0.46339121  0.03327080  0.49380923    -2.18100
O83         O  0.58559339  0.05798782  0.56137347    -0.66800
O84         O  0.55183647  0.09779666  0.53337820    -0.51400
C85         C  0.57558903  0.08945066  0.55500050     0.72000
O86         O  0.58741879  0.94208547  0.42650186    -0.59700
O87         O  0.55326467  0.90173793  0.45341977    -0.51700
C88         C  0.57801235  0.91051450  0.43301276     0.73800
O89         O  0.58224575  0.05998034  0.42163126    -0.71100
O90         O  0.55503895  0.09883389  0.45708461    -0.49800
C91         C  0.57590467  0.09114943  0.43238819     0.75100
O92         O  0.58606153  0.93967667  0.55693721    -0.66400
O93         O  0.55249479  0.90006021  0.52834062    -0.53600
C94         C  0.57668469  0.90832834  0.54949789     0.73500
Zr95       Zr  0.56820018  0.99915323  0.54301376     2.77500
O96         O  0.63126756  0.99771378  0.53953070    -0.97200
O97         O  0.56832281  0.99642353  0.60557147    -0.78000
Zr98       Zr  0.56715612  0.00087535  0.44067579     2.70100
O99         O  0.63011452  0.00612505  0.44262351    -0.79300
O100        O  0.56494210  0.99680730  0.37824413    -0.98300
Zr101      Zr  0.51523556  0.93371999  0.49130985     2.21500
Zr102      Zr  0.51581225  0.06604834  0.49357719     2.11100
O103        O  0.56837931  0.03360454  0.49241062    -2.47000
O104        O  0.56782790  0.96628742  0.49129830    -0.79100
O105        O  0.51650367  0.03284551  0.54521505    -0.71200
O106        O  0.51529615  0.96738116  0.43987138    -2.32200
O107        O  0.51639726  0.96544817  0.54398286    -2.28400
O108        O  0.51545524  0.03451258  0.44103422    -0.73000
H109        H  0.44328668  0.04828298  0.49398551     0.79000
H110        H  0.51508955  0.95254705  0.41980756     0.80100
H111        H  0.58830066  0.04889714  0.49243818     0.82300
H112        H  0.51648008  0.94988573  0.56352675     0.79900
H113        H  0.48867893  0.99692854  0.37319169     0.42900
H114        H  0.55643458  0.01987455  0.37048553     0.41900
H115        H  0.63887960  0.98813182  0.42656499     0.41600
H116        H  0.63712224  0.01291014  0.51977206     0.39500
H117        H  0.55703105  0.01835461  0.61303731     0.42700
H118        H  0.44838498  0.99634880  0.61594746     0.37400
H119        H  0.39355805  0.99134340  0.52718027     0.43600
H120        H  0.39307180  0.00231659  0.42066669     0.40000
H121        H  0.63928737  0.01082638  0.55995324     0.44900
H122        H  0.48330885  0.01708974  0.61328103     0.43600
H123        H  0.39287399  0.98703210  0.45803287     0.43800
H124        H  0.58956302  0.99619287  0.37098631     0.44100
O125        O  0.94932098  0.57081838  0.42971872    -0.74800
O126        O  0.91276908  0.53365899  0.45806566    -0.53700
C127        C  0.91903143  0.55832490  0.43660718     0.79000
O128        O  0.07396005  0.43901610  0.41921963    -0.59400
O129        O  0.11318736  0.46818709  0.45255609    -0.52400
C130        C  0.10504621  0.44608789  0.42914604     0.71000
O131        O  0.95693409  0.43333216  0.42257985    -0.73900
O132        O  0.91691953  0.46097018  0.45626819    -0.54500
C133        C  0.92554674  0.43956344  0.43229031     0.77000
O134        O  0.06658555  0.58160151  0.42822649    -0.59100
O135        O  0.10920425  0.54673547  0.45016666    -0.52200
C136        C  0.09855350  0.57245457  0.43169580     0.73600
Zr137      Zr  0.00973007  0.55869989  0.44515441     2.54700
O138        O  0.00837856  0.56408321  0.38280729    -0.79600
O139        O  0.00402145  0.62144197  0.45317565    -0.93000
Zr140      Zr  0.01503102  0.45533667  0.43635565     2.64700
O141        O  0.01187077  0.46988205  0.37550983    -0.98000
O142        O  0.01863126  0.39326346  0.42375654    -0.80100
O143        O  0.97905512  0.50509573  0.44166835    -0.83400
O144        O  0.04589637  0.50887844  0.43849776    -2.18100
O145        O  0.07242293  0.57033756  0.56215269    -0.66800
O146        O  0.11222731  0.54623913  0.52570825    -0.51400
C147        C  0.10357634  0.56612714  0.55086735     0.72000
O148        O  0.96288216  0.42582509  0.55861191    -0.59700
O149        O  0.92048136  0.45867921  0.53354581    -0.51700
C150        C  0.93091398  0.43452199  0.55396554     0.73800
O151        O  0.07991887  0.42977676  0.54886846    -0.71100
O152        O  0.11666908  0.46954979  0.52453399    -0.49800
C153        C  0.11031610  0.44222909  0.54265863     0.75100
O154        O  0.95552979  0.56535430  0.56533410    -0.66400
O155        O  0.91624010  0.53192251  0.53622926    -0.53600
C156        C  0.92451862  0.55493498  0.55877762     0.73500
Zr157      Zr  0.01417457  0.55029796  0.54701979     2.77500
O158        O  0.01495982  0.54038104  0.60888971    -0.97200
O159        O  0.01168625  0.61334781  0.55439794    -0.78000
Zr160      Zr  0.01966446  0.44657577  0.53855905     2.70100
O161        O  0.02523460  0.44235861  0.60074877    -0.79300
O162        O  0.02078518  0.38354651  0.53080139    -0.98300
Zr163      Zr  0.94911245  0.49855211  0.49470955     2.21500
Zr164      Zr  0.08040133  0.50663462  0.48922654     2.11100
O165        O  0.05021211  0.50036020  0.54232688    -2.47000
O166        O  0.98378830  0.49644130  0.54507910    -0.79100
O167        O  0.04534301  0.55735379  0.49483254    -0.71200
O168        O  0.98421759  0.44781522  0.48887065    -2.32200
O169        O  0.97844889  0.55326235  0.49738038    -2.28400
O170        O  0.05048969  0.45243267  0.48610621    -0.73000
H171        H  0.06014888  0.51102885  0.41821365     0.79000
H172        H  0.97029441  0.42687076  0.48816006     0.80100
H173        H  0.06615482  0.49971126  0.56146025     0.82300
H174        H  0.96221590  0.57237994  0.49920944     0.79900
H175        H  0.02139194  0.38210295  0.44654614     0.42900
H176        H  0.04190418  0.37898973  0.51698489     0.41900
H177        H  0.02873787  0.46670203  0.60850947     0.41600
H178        H  0.03983751  0.53921213  0.61507093     0.39500
H179        H  0.00525898  0.61680827  0.57881819     0.42700
H180        H  0.00842259  0.63145469  0.43010777     0.37400
H181        H  0.02484347  0.54618288  0.37440639     0.43600
H182        H  0.01102962  0.44701308  0.36371641     0.40000
H183        H  0.00676133  0.56259515  0.61903068     0.44900
H184        H  0.02458825  0.62815521  0.46689888     0.43600
H185        H  0.98833492  0.47974229  0.37239373     0.43800
H186        H  0.02624637  0.37416424  0.55388424     0.44100
C187        C  0.72364204  0.33577867  0.32029709     0.80800
N188        N  0.71321921  0.30388112  0.33153070    -0.77600
C189        C  0.68773982  0.28627130  0.31471222     0.83200
N190        N  0.67303017  0.30049820  0.28627370    -0.77500
C191        C  0.68287175  0.33267906  0.27531583     0.83300
N192        N  0.70783202  0.35046312  0.29269129    -0.79200
C193        C  0.72708814  0.66879113  0.31642957     0.80800
N194        N  0.70974948  0.65082901  0.29168953    -0.77600
C195        C  0.67758064  0.66119349  0.28180454     0.83200
N196        N  0.66247504  0.68898776  0.29727173    -0.77500
C197        C  0.67995557  0.70751342  0.32136105     0.83300
N198        N  0.71235344  0.69750508  0.33080343    -0.79200
C199        C  0.68242126  0.33099521  0.70540196     0.80800
N200        N  0.67367894  0.29833495  0.69527802    -0.77600
C201        C  0.69319001  0.28112265  0.67167674     0.83200
N202        N  0.72193436  0.29667744  0.65831673    -0.77500
C203        C  0.73063019  0.32965806  0.66813101     0.83300
N204        N  0.71044054  0.34688870  0.69123167    -0.79200
C205        C  0.32527720  0.73478736  0.30415395     0.80800
N206        N  0.29782039  0.71824009  0.31894370    -0.77600
C207        C  0.28796366  0.68614325  0.30754904     0.83200
N208        N  0.30570950  0.67077242  0.28142402    -0.77500
C209        C  0.33231411  0.68775643  0.26584994     0.83300
N210        N  0.34222297  0.71952142  0.27750620    -0.79200
C211        C  0.32713771  0.68630077  0.72106791     0.80800
N212        N  0.34633261  0.70950398  0.70268180    -0.77600
C213        C  0.33421605  0.72262526  0.67263861     0.83200
N214        N  0.30328553  0.71145614  0.66027055    -0.77500
C215        C  0.28407860  0.68792221  0.67816050     0.83300
N216        N  0.29587644  0.67561073  0.70877635    -0.79200
C217        C  0.33898175  0.32700818  0.70746958     0.80800
N218        N  0.31815248  0.34644778  0.68692348    -0.77600
C219        C  0.30610860  0.33325748  0.65697711     0.83200
N220        N  0.31589119  0.30082565  0.64703200    -0.77500
C221        C  0.33727550  0.28139451  0.66709851     0.83300
N222        N  0.34844533  0.29435616  0.69763968    -0.79200
C223        C  0.68044547  0.66287955  0.70244791     0.80800
N224        N  0.66426442  0.68904356  0.68535930    -0.77600
C225        C  0.68117698  0.70692772  0.66034486     0.83200
N226        N  0.71410188  0.69794413  0.65167815    -0.77500
C227        C  0.72992795  0.67086202  0.66777128     0.83300
N228        N  0.71314228  0.65358736  0.69336332    -0.79200
C229        C  0.34027888  0.28560471  0.32211642     0.80800
N230        N  0.35396727  0.29539933  0.29153039    -0.77600
C231        C  0.33850943  0.32067279  0.27263102     0.83200
N232        N  0.30904188  0.33602227  0.28424781    -0.77500
C233        C  0.29553460  0.32667354  0.31512530     0.83300
N234        N  0.31148851  0.30174004  0.33425422    -0.79200
C235        C  0.18187391  0.38245395  0.57649030     0.16500
C236        C  0.20288569  0.35424013  0.58573331    -0.32600
C237        C  0.23329761  0.36149826  0.60400669     0.20900
C238        C  0.24240486  0.39532249  0.61293970     0.03100
C239        C  0.22193743  0.42370422  0.60271094    -0.22300
C240        C  0.19154998  0.41643195  0.58422651     0.12200
S241        S  0.14283479  0.37879273  0.55623097    -0.05900
C242        C  0.14000202  0.42356104  0.55724209    -0.11100
C243        C  0.16777665  0.44026770  0.57269777    -0.26000
S244        S  0.27836276  0.39812023  0.63839987    -0.03200
C245        C  0.28123913  0.35328948  0.63645750    -0.16700
C246        C  0.25590074  0.33734523  0.61683205    -0.14700
H247        H  0.19540044  0.32769795  0.57971884     0.20700
H248        H  0.22890167  0.45017101  0.60959364     0.16800
H249        H  0.17001585  0.46824540  0.57594903     0.19300
H250        H  0.25301988  0.30940482  0.61376175     0.12600
C251        C  0.20083250  0.64336928  0.64685676     0.16500
C252        C  0.16865437  0.62668146  0.64319067    -0.32600
C253        C  0.16021760  0.61341189  0.61061202     0.20900
C254        C  0.18300135  0.61615938  0.58309947     0.03100
C255        C  0.21472371  0.63349497  0.58656288    -0.22300
C256        C  0.22288872  0.64720427  0.61890799     0.12200
S257        S  0.21707912  0.65951665  0.68456429    -0.05900
C258        C  0.25338822  0.67234817  0.66201421    -0.09400
C259        C  0.25276335  0.66432331  0.62733536    -0.26000
S260        S  0.16901378  0.59674009  0.54622724    -0.03200
C261        C  0.13155782  0.58562096  0.56773453    -0.16700
C262        C  0.13033405  0.59623341  0.60179303    -0.14700
H263        H  0.15117245  0.62380665  0.66482174     0.20700
H264        H  0.23244303  0.63589664  0.56505721     0.16800
H265        H  0.27374954  0.66952125  0.60949810     0.19300
H266        H  0.10902251  0.59110330  0.61925468     0.12600
C267        C  0.22276875  0.62427746  0.35042417     0.16500
C268        C  0.20541161  0.59554880  0.36460817    -0.32600
C269        C  0.17426927  0.60185438  0.38218141     0.20900
C270        C  0.16041194  0.63514962  0.38469666     0.03100
C271        C  0.17804650  0.66400385  0.37089327    -0.22300
C272        C  0.20974834  0.65780919  0.35412920     0.12200
S273        S  0.26090060  0.62195742  0.32824526    -0.05900
C274        C  0.25998628  0.66675622  0.32483988    -0.09400
C275        C  0.23131054  0.68243165  0.33987124    -0.26000
S276        S  0.12161512  0.63695923  0.40603077    -0.03200
C277        C  0.12485874  0.59260762  0.41270023    -0.16700
C278        C  0.15422007  0.57742833  0.39857055    -0.14700
H279        H  0.21588708  0.56943583  0.36230353     0.20700
H280        H  0.16766620  0.69013527  0.37335916     0.16800
H281        H  0.22637442  0.71024596  0.34003470     0.19300
H282        H  0.16034644  0.54988023  0.39991202     0.12600
C283        C  0.21347741  0.37737343  0.33914162     0.16500
C284        C  0.18249896  0.39653852  0.33994288    -0.32600
C285        C  0.16840344  0.40439147  0.37231100     0.20900
C286        C  0.18479755  0.39415861  0.40243020     0.03100
C287        C  0.21535747  0.37462486  0.40159838    -0.22300
C288        C  0.22906641  0.36630274  0.36936087     0.12200
S289        S  0.23530575  0.36560041  0.30271126    -0.05900
C290        C  0.26503883  0.34483994  0.32867214    -0.09400
C291        C  0.25843478  0.34735881  0.36350830    -0.26000
S292        S  0.16489525  0.40762597  0.43914791    -0.03200
C293        C  0.13369932  0.42662027  0.41378048    -0.16700
C294        C  0.13853516  0.42271193  0.37871537    -0.14700
H295        H  0.17001852  0.40500874  0.31645460     0.20700
H296        H  0.22798274  0.36636923  0.42509237     0.16800
H297        H  0.27459837  0.33637416  0.38353674     0.19300
H298        H  0.12165593  0.43341883  0.35913936     0.12600
C299        C  0.81630815  0.64672427  0.62548676     0.16500
C300        C  0.84716959  0.64556721  0.60643425    -0.32600
C301        C  0.86185501  0.61267213  0.60026941     0.20900
C302        C  0.84642824  0.58231776  0.61237544     0.03100
C303        C  0.81617306  0.58357369  0.63215885    -0.22300
C304        C  0.80161176  0.61639205  0.63843092     0.12200
S305        S  0.79267673  0.68356796  0.63339793    -0.05900
C306        C  0.76319553  0.65773765  0.65490140    -0.09400
C307        C  0.77144659  0.62262771  0.65577510    -0.26000
S308        S  0.86653800  0.54479287  0.59994308    -0.03200
C309        C  0.89633489  0.57027515  0.57874002    -0.16700
C310        C  0.89103232  0.60588850  0.58131557    -0.14700
H311        H  0.85873469  0.66912632  0.59616080     0.20700
H312        H  0.80403290  0.55992477  0.64155336     0.16800
H313        H  0.75531894  0.60248538  0.66705401     0.19300
H314        H  0.90699409  0.62556200  0.56905327     0.12600
C315        C  0.80011878  0.38833339  0.62763490     0.16500
C316        C  0.81894093  0.41600244  0.61330595    -0.32600
C317        C  0.85176380  0.40857298  0.59964536     0.20900
C318        C  0.86573754  0.37525925  0.60086781     0.03100
C319        C  0.84664183  0.34740205  0.61477916    -0.22300
C320        C  0.81337168  0.35468319  0.62774458     0.12200
S321        S  0.75991294  0.39217310  0.64557909    -0.05900
C322        C  0.76032491  0.34777252  0.65236409    -0.09400
C323        C  0.79036762  0.33112257  0.64153835    -0.26000
S324        S  0.90645847  0.37208988  0.58347520    -0.03200
C325        C  0.90392563  0.41581683  0.57342937    -0.16700
C326        C  0.87337025  0.43181389  0.58366167    -0.14700
H327        H  0.80835193  0.44216694  0.61260910     0.20700
H328        H  0.85712027  0.32119682  0.61522108     0.16800
H329        H  0.79520778  0.30339980  0.64395087     0.19300
H330        H  0.86725675  0.45907535  0.57948582     0.12600
C331        C  0.85928310  0.38211197  0.38486932     0.16500
C332        C  0.84117542  0.35545037  0.36789923    -0.32600
C333        C  0.80634365  0.36165825  0.35929643     0.20900
C334        C  0.79042541  0.39327843  0.36653574     0.03100
C335        C  0.80832190  0.41965901  0.38409381    -0.22300
C336        C  0.84290570  0.41316379  0.39332702     0.12200
S337        S  0.90190190  0.38010646  0.39700319    -0.05900
C338        C  0.89721333  0.42111418  0.41458343    -0.09400
C339        C  0.86440338  0.43542494  0.41076041    -0.26000
S340        S  0.74854410  0.39630077  0.35234432    -0.03200
C341        C  0.75217999  0.35408726  0.33765197    -0.16700
C342        C  0.78429762  0.33886496  0.34314475    -0.14700
H343        H  0.85367448  0.33095245  0.36166368     0.20700
H344        H  0.79586427  0.44420549  0.39024054     0.16800
H345        H  0.85683606  0.46102456  0.41986486     0.19300
H346        H  0.79126088  0.31270265  0.33520817     0.12600
C347        C  0.83803578  0.58222117  0.38510001     0.16500
C348        C  0.80739038  0.58219761  0.36579835    -0.32600
C349        C  0.79525498  0.61437398  0.35361787     0.20900
C350        C  0.81251149  0.64528806  0.36079316     0.03100
C351        C  0.84368510  0.64519402  0.37928967    -0.22300
C352        C  0.85610740  0.61295101  0.39103507     0.12200
S353        S  0.85632063  0.54610066  0.40318245    -0.05900
C354        C  0.88928313  0.57252101  0.41782456    -0.09400
C355        C  0.88589876  0.60745193  0.40942856    -0.26000
S356        S  0.79159574  0.68189910  0.34680175    -0.03200
C357        C  0.75975157  0.65517462  0.33039083    -0.16700
C358        C  0.76529966  0.61984853  0.33553723    -0.14700
H359        H  0.79334608  0.55822670  0.36092579     0.20700
H360        H  0.85736247  0.66924166  0.38475465     0.16800
H361        H  0.90407503  0.62769954  0.41668564     0.19300
H362        H  0.74733448  0.59943114  0.32820739     0.12600
C363        C  0.60586232  0.17343996  0.59895164     0.16500
C364        C  0.60868072  0.20742950  0.61152421    -0.32600
C365        C  0.63906992  0.21634821  0.62897176     0.20900
C366        C  0.66593645  0.19273353  0.63347506     0.03100
C367        C  0.66272999  0.15819719  0.62157836    -0.22300
C368        C  0.63192465  0.14909098  0.60431797     0.12200
S369        S  0.57152567  0.15859972  0.57581319    -0.05900
C370        C  0.59173987  0.11861052  0.57377503    -0.09400
C371        C  0.62372362  0.11719024  0.59021218    -0.26000
S372        S  0.70165491  0.21014791  0.65347474    -0.03200
C373        C  0.67934275  0.24902311  0.65640339    -0.16700
C374        C  0.64640424  0.24834133  0.64249788    -0.14700
H375        H  0.58817417  0.22630589  0.60749772     0.20700
H376        H  0.68343575  0.13946916  0.62516624     0.16800
H377        H  0.64030852  0.09440964  0.59109732     0.19300
H378        H  0.62899390  0.27051344  0.64162564     0.12600
C379        C  0.40007233  0.16808254  0.57961390     0.16500
C380        C  0.38115695  0.19911316  0.58068684    -0.32600
C381        C  0.37124468  0.21164757  0.61296879     0.20900
C382        C  0.37987339  0.19431341  0.64306472     0.03100
C383        C  0.39799105  0.16256578  0.64194887    -0.22300
C384        C  0.40778987  0.14985588  0.60948158     0.12200
S385        S  0.41638770  0.15017768  0.54298478    -0.05900
C386        C  0.43320052  0.11728296  0.56794311    -0.09400
C387        C  0.42641180  0.12011226  0.60282493    -0.26000
S388        S  0.36813570  0.21602837  0.67971732    -0.03200
C389        C  0.35101277  0.24828940  0.65391099    -0.16700
C390        C  0.35420650  0.24220015  0.61901632    -0.14700
H391        H  0.37514876  0.21334836  0.55738396     0.20700
H392        H  0.40486418  0.14885160  0.66530818     0.16800
H393        H  0.43548896  0.10201262  0.62221055     0.19300
H394        H  0.34601101  0.26008974  0.59904787     0.12600
C395        C  0.38518727  0.22210941  0.38304041     0.16500
C396        C  0.40163942  0.20538970  0.41057243    -0.32600
C397        C  0.41502674  0.17192029  0.40468098     0.20900
C398        C  0.41162076  0.15558915  0.37302227     0.03100
C399        C  0.39578515  0.17252777  0.34537769    -0.22300
C400        C  0.38298688  0.20617065  0.35108248     0.12200
S401        S  0.36670561  0.26254251  0.38489172    -0.05900
C402        C  0.35698121  0.25807479  0.34199091    -0.09400
C403        C  0.36723478  0.22694698  0.32726685    -0.26000
S404        S  0.42795441  0.11437012  0.37141416    -0.03200
C405        C  0.44038331  0.11950979  0.41355360    -0.16700
C406        C  0.43199432  0.15141995  0.42803385    -0.14700
H407        H  0.40384463  0.21785772  0.43545543     0.20700
H408        H  0.39349501  0.16001437  0.32052064     0.16800
H409        H  0.36310657  0.21986388  0.30062321     0.19300
H410        H  0.43737140  0.15886298  0.45435919     0.12600
C411        C  0.62293667  0.17435034  0.40385379     0.16500
C412        C  0.63877887  0.20716869  0.40233067    -0.32600
C413        C  0.65088791  0.21866340  0.37033688     0.20900
C414        C  0.64695527  0.19865560  0.34089315     0.03100
C415        C  0.63157929  0.16540342  0.34251492    -0.22300
C416        C  0.61984613  0.15364307  0.37476675     0.12200
S417        S  0.60565382  0.15666142  0.44019625    -0.05900
C418        C  0.59447777  0.12055426  0.41637199    -0.09400
C419        C  0.60388684  0.12230663  0.38191315    -0.26000
S420        S  0.66145409  0.21865057  0.30420676    -0.03200
C421        C  0.67370683  0.25373055  0.32913398    -0.16700
C422        C  0.66662563  0.25001581  0.36382772    -0.14700
H423        H  0.64130121  0.22320859  0.42511052     0.20700
H424        H  0.62857715  0.14959326  0.31964492     0.16800
H425        H  0.59859154  0.10220318  0.36307495     0.19300
H426        H  0.67164639  0.26977556  0.38310081     0.12600
C427        C  0.38933496  0.84230573  0.58684356     0.16500
C428        C  0.36006403  0.82400589  0.59826619    -0.32600
C429        C  0.36554631  0.79425209  0.61846615     0.20900
C430        C  0.39869680  0.78317898  0.62701318     0.03100
C431        C  0.42803257  0.80094650  0.61479193    -0.22300
C432        C  0.42254233  0.83070864  0.59451516     0.12200
S433        S  0.38801828  0.88031710  0.56406215    -0.05900
C434        C  0.43262322  0.88026813  0.56436884    -0.09400
C435        C  0.44761276  0.85218066  0.58113191    -0.26000
S436        S  0.39969183  0.74788979  0.65381134    -0.03200
C437        C  0.35501389  0.74783686  0.65302927    -0.16700
C438        C  0.34036362  0.77372670  0.63290845    -0.14700
H439        H  0.33412919  0.83300435  0.59230104     0.20700
H440        H  0.45395720  0.79238943  0.62139268     0.16800
H441        H  0.47527627  0.84831873  0.58421120     0.19300
H442        H  0.31274723  0.77789031  0.62983058     0.12600
C443        C  0.63534132  0.84104545  0.59261911     0.16500
C444        C  0.66293925  0.82230523  0.60692250    -0.32600
C445        C  0.65624458  0.78815976  0.61792955     0.20900
C446        C  0.62342178  0.77350025  0.61531203     0.03100
C447        C  0.59600658  0.79198963  0.60041580    -0.22300
C448        C  0.60283330  0.82593588  0.58897793     0.12200
S449        S  0.63794826  0.88302675  0.57832436    -0.05900
C450        C  0.59509082  0.87974885  0.56646237    -0.09400
C451        C  0.57966792  0.84794062  0.57362388    -0.26000
S452        S  0.62001718  0.73259394  0.63212201    -0.03200
C453        C  0.66337988  0.73508077  0.64218024    -0.16700
C454        C  0.67952760  0.76590239  0.63285141    -0.14700
H455        H  0.68842912  0.83388894  0.60954356     0.20700
H456        H  0.57043586  0.78051745  0.59805908     0.16800
H457        H  0.55288519  0.84142402  0.56814135     0.19300
H458        H  0.70650711  0.77204952  0.63772762     0.12600
C459        C  0.63638690  0.84353015  0.38798632     0.16500
C460        C  0.66348661  0.82478306  0.37251938    -0.32600
C461        C  0.65648645  0.79046751  0.36197953     0.20900
C462        C  0.62381952  0.77578842  0.36607406     0.03100
C463        C  0.59705272  0.79421477  0.38214410    -0.22300
C464        C  0.60420343  0.82819255  0.39317301     0.12200
S465        S  0.63903981  0.88575032  0.40192455    -0.05900
C466        C  0.59667034  0.88212300  0.41568901    -0.09400
C467        C  0.58148486  0.85002882  0.40939152    -0.26000
S468        S  0.61975621  0.73469065  0.34996675    -0.03200
C469        C  0.66278505  0.73679052  0.33849762    -0.16700
C470        C  0.67926073  0.76785025  0.34657512    -0.14700
H471        H  0.68880738  0.83643647  0.36876560     0.20700
H472        H  0.57167075  0.78262915  0.38573502     0.16800
H473        H  0.55501135  0.84319596  0.41594798     0.19300
H474        H  0.70614443  0.77373037  0.34087038     0.12600
C475        C  0.35525611  0.81664024  0.35261385     0.16500
C476        C  0.35849199  0.84738894  0.37198200    -0.32600
C477        C  0.39163201  0.85600608  0.38444100     0.20900
C478        C  0.42012256  0.83482473  0.37812781     0.03100
C479        C  0.41705372  0.80471931  0.35810292    -0.22300
C480        C  0.38412809  0.79630538  0.34545471     0.12200
S481        S  0.31710263  0.79980382  0.33723449    -0.05900
C482        C  0.34070614  0.76558534  0.32054152    -0.09400
C483        C  0.37601890  0.76743135  0.32657673    -0.26000
S484        S  0.45773910  0.84860173  0.39669824    -0.03200
C485        C  0.43517646  0.88378209  0.41257931    -0.16700
C486        C  0.40027040  0.88456688  0.40390395    -0.14700
H487        H  0.33613679  0.86353067  0.37757628     0.20700
H488        H  0.43930464  0.78824930  0.35301530     0.16800
H489        H  0.39460767  0.74769745  0.31892334     0.19300
H490        H  0.38224627  0.90478143  0.41162704     0.12600
C491        C  0.60786220  0.37130446  0.14353241     0.16500
C492        C  0.62308701  0.34439338  0.16281378    -0.32600
C493        C  0.63716569  0.35315310  0.19500593     0.20900
C494        C  0.63662602  0.38721212  0.20707643     0.03100
C495        C  0.62060807  0.41375701  0.18832665    -0.22300
C496        C  0.60611638  0.40492986  0.15657420     0.12200
S497        S  0.59052834  0.36692720  0.10322596    -0.05900
C498        C  0.58001104  0.41059950  0.10482131    -0.09400
C499        C  0.58976273  0.42735869  0.13477803    -0.26000
S500        S  0.65681360  0.39322599  0.24554536    -0.03200
C501        C  0.66515115  0.34917488  0.24615644    -0.16700
C502        C  0.65307042  0.33096617  0.21775012    -0.14700
H503        H  0.62417642  0.31794983  0.15307858     0.20700
H504        H  0.61975613  0.44026537  0.19793874     0.16800
H505        H  0.58573334  0.45482873  0.14002269     0.19300
H506        H  0.65623097  0.30317949  0.21378907     0.12600
C507        C  0.61857769  0.61749852  0.21563660     0.16500
C508        C  0.59090986  0.60318161  0.19706918    -0.32600
C509        C  0.59769859  0.59163198  0.16353914     0.20900
C510        C  0.63039416  0.59471549  0.14889663     0.03100
C511        C  0.65819150  0.60843854  0.16768187    -0.22300
C512        C  0.65155868  0.61942108  0.20141387     0.12200
S513        S  0.61545144  0.63431866  0.25614547    -0.05900
C514        C  0.65923191  0.64296966  0.25419561    -0.09400
C515        C  0.67515462  0.63356696  0.22368259    -0.26000
S516        S  0.63297381  0.58047667  0.10740509    -0.03200
C517        C  0.58979489  0.56933311  0.11016832    -0.16700
C518        C  0.57434092  0.57671946  0.14152337    -0.14700
H519        H  0.56519979  0.60130377  0.20818500     0.20700
H520        H  0.68383516  0.61056489  0.15646619     0.16800
H521        H  0.70228187  0.63789610  0.21775747     0.19300
H522        H  0.54739038  0.57169931  0.14773723     0.12600
C523        C  0.38145436  0.65709123  0.18588001     0.16500
C524        C  0.39733287  0.65382160  0.15362267    -0.32600
C525        C  0.41083690  0.62109625  0.14470373     0.20900
C526        C  0.40955820  0.59313330  0.16732263     0.03100
C527        C  0.39316840  0.59622920  0.19936884    -0.22300
C528        C  0.37870591  0.62867826  0.20782809     0.12200
S529        S  0.36372179  0.69466063  0.20155373    -0.05900
C530        C  0.35122759  0.67146208  0.23736898    -0.09400
C531        C  0.36082922  0.63665528  0.23726561    -0.26000
S532        S  0.42841821  0.55596300  0.15208484    -0.03200
C533        C  0.43684952  0.57792022  0.11426454    -0.16700
C534        C  0.42612545  0.61241504  0.11403003    -0.14700
H535        H  0.39883887  0.67575217  0.13612697     0.20700
H536        H  0.39145545  0.57423397  0.21677559     0.16800
H537        H  0.35550573  0.61839837  0.25786964     0.19300
H538        H  0.42940629  0.63017515  0.09261170     0.12600
C539        C  0.39634226  0.36033897  0.20388894     0.16500
C540        C  0.42387394  0.37522091  0.18573700    -0.32600
C541        C  0.41609944  0.39206135  0.15485036     0.20900
C542        C  0.38252619  0.39346298  0.14208337     0.03100
C543        C  0.35481305  0.37902390  0.16055790    -0.22300
C544        C  0.36252461  0.36275182  0.19189192     0.12200
S545        S  0.40060770  0.33930947  0.24211692    -0.05900
C546        C  0.35627341  0.33460550  0.24249616    -0.09400
C547        C  0.33921058  0.34830424  0.21429247    -0.26000
S548        S  0.37895491  0.41395994  0.10331808    -0.03200
C549        C  0.42297928  0.42138617  0.10505298    -0.16700
C550        C  0.43935458  0.40845588  0.13392753    -0.14700
H551        H  0.45019132  0.37392656  0.19538069     0.20700
H552        H  0.32845972  0.38058284  0.15106082     0.16800
H553        H  0.31135176  0.34811171  0.21068997     0.19300
H554        H  0.46691727  0.41043326  0.13900476     0.12600
C555        C  0.63529942  0.59334348  0.83504189     0.16500
C556        C  0.66321228  0.60583256  0.81539311    -0.32600
C557        C  0.65589301  0.61871498  0.78238757     0.20900
C558        C  0.62228886  0.61946670  0.76966271     0.03100
C559        C  0.59460602  0.60618962  0.78890738    -0.22300
C560        C  0.60195582  0.59307923  0.82170120     0.12200
S561        S  0.63818653  0.57782850  0.87622231    -0.05900
C562        C  0.59414394  0.57020290  0.87492633    -0.09400
C563        C  0.57838175  0.57949375  0.84426653    -0.26000
S564        S  0.61828968  0.63846169  0.73021506    -0.03200
C565        C  0.66247412  0.64472573  0.73045198    -0.16700
C566        C  0.67923717  0.63271199  0.75964415    -0.14700
H567        H  0.68936329  0.60594152  0.82553052     0.20700
H568        H  0.56837313  0.60654508  0.77896747     0.16800
H569        H  0.55092797  0.57681128  0.83892559     0.19300
H570        H  0.70681000  0.63516143  0.76440517     0.12600
C571        C  0.62945834  0.38813422  0.76692757     0.16500
C572        C  0.61171794  0.41505861  0.78388936    -0.32600
C573        C  0.59947683  0.40837457  0.81725033     0.20900
C574        C  0.60475873  0.37636778  0.83305008     0.03100
C575        C  0.62167648  0.34918595  0.81577597    -0.22300
C576        C  0.63377834  0.35581660  0.78241684     0.12200
S577        S  0.64838881  0.39163695  0.72729721    -0.05900
C578        C  0.66158565  0.34894619  0.73152902    -0.09400
C579        C  0.65169961  0.33302548  0.76193630    -0.26000
S580        S  0.59008603  0.37416848  0.87439966    -0.03200
C581        C  0.57613594  0.41667785  0.87027385    -0.16700
C582        C  0.58263139  0.43150675  0.83836355    -0.14700
H583        H  0.60825358  0.44032455  0.77191024     0.20700
H584        H  0.62581482  0.32416647  0.82804881     0.16800
H585        H  0.65824558  0.30651565  0.76907687     0.19300
H586        H  0.57628278  0.45809997  0.83135658     0.12600
C587        C  0.37369983  0.35568304  0.79496329     0.16500
C588        C  0.38646699  0.35822507  0.82854004    -0.32600
C589        C  0.39633182  0.39138936  0.84013065     0.20900
C590        C  0.39370148  0.42064489  0.81924188     0.03100
C591        C  0.37986073  0.41827911  0.78620811    -0.22300
C592        C  0.36999102  0.38522186  0.77467386     0.12200
S593        S  0.36263942  0.31763355  0.77493887    -0.05900
C594        C  0.35218155  0.34214130  0.73935129    -0.09400
C595        C  0.35720520  0.37765325  0.74293239    -0.26000
S596        S  0.41037770  0.45783250  0.83644695    -0.03200
C597        C  0.42044561  0.43383597  0.87236482    -0.16700
C598        C  0.41111136  0.39901012  0.87112871    -0.14700
H599        H  0.38949269  0.33530034  0.84453854     0.20700
H600        H  0.37780952  0.44104516  0.76983129     0.16800
H601        H  0.35250328  0.39684400  0.72302078     0.19300
H602        H  0.41647362  0.38005376  0.89108925     0.12600
C603        C  0.35501531  0.63917021  0.80383429     0.16500
C604        C  0.35739146  0.61991850  0.83445235    -0.32600
C605        C  0.39073025  0.61244495  0.84702885     0.20900
C606        C  0.42031390  0.62326253  0.82965824     0.03100
C607        C  0.41791278  0.64303806  0.79954393    -0.22300
C608        C  0.38469321  0.65081984  0.78723016     0.12200
S609        S  0.31724316  0.64963521  0.78315330    -0.05900
C610        C  0.34187847  0.67040004  0.75225461    -0.09400
C611        C  0.37730959  0.66908962  0.75797837    -0.26000
S612        S  0.45833606  0.60963233  0.84753864    -0.03200
C613        C  0.43422345  0.58975421  0.87918413    -0.16700
C614        C  0.39862686  0.59357735  0.87595631    -0.14700
H615        H  0.33434217  0.61079153  0.84762256     0.20700
H616        H  0.44097075  0.65157706  0.78600002     0.16800
H617        H  0.39678501  0.67996096  0.74096460     0.19300
H618        H  0.37964707  0.58217504  0.89317283     0.12600
loop_ 
_geom_bond_atom_site_label_1 
_geom_bond_atom_site_label_2 
_geom_bond_distance 
_geom_bond_site_symmetry_2 
_ccdc_geom_bond_type 
O1          Zr13   2.433       .  S
O1            C3   1.285       .  A
O2          Zr39   2.407       .  S
O2            C3   1.283       .  A
C3          C597   1.456       .  S
O4          Zr16   2.460   1_554  S
O4            C6   1.292       .  A
O5          Zr40   2.408       .  S
O5            C6   1.283       .  A
C6          C533   1.472       .  S
O7          Zr16   2.445       .  S
O7            C9   1.288       .  A
O8          Zr39   2.420       .  S
O8            C9   1.285       .  A
C9          C613   1.464       .  S
O10         Zr13   2.432   1_554  S
O10          C12   1.285       .  A
O11         Zr40   2.414       .  S
O11          C12   1.285       .  A
C12         C549   1.460       .  S
Zr13         O14   2.435       .  S
Zr13         O15   2.435       .  S
Zr13         O19   2.372       .  S
Zr13         O20   2.370   1_556  S
Zr13         O43   2.373   1_556  S
Zr13         O45   2.370       .  S
O14          H57   0.990       .  S
O15          H56   0.990       .  S
O15          H60   0.990       .  S
Zr16         O17   2.435       .  S
Zr16         O18   2.434       .  S
Zr16         O20   2.365   1_556  S
Zr16         O19   2.376       .  S
Zr16         O44   2.379       .  S
Zr16         O46   2.372   1_556  S
O17          H58   0.990       .  S
O17          H61   0.990       .  S
O18          H51   0.990   1_556  S
O19         Zr39   2.379       .  S
O20         Zr40   2.377       .  S
O20          H47   0.966       .  S
O21         Zr33   2.452   1_554  S
O21          C23   1.289       .  A
O22         Zr40   2.403       .  S
O22          C23   1.283       .  A
C23         C498   1.466       .  S
O24         Zr36   2.458       .  S
O24          C26   1.290       .  A
O25         Zr39   2.405       .  S
O25          C26   1.283       .  A
C26         C562   1.471       .  S
O27         Zr36   2.444   1_554  S
O27          C29   1.288       .  A
O28         Zr40   2.415       .  S
O28          C29   1.285       .  A
C29         C517   1.467       .  S
O30         Zr33   2.443       .  S
O30          C32   1.288       .  A
O31         Zr39   2.428       .  S
O31          C32   1.287       .  A
C32         C581   1.473       .  S
Zr33         O34   2.435       .  S
Zr33         O35   2.434       .  S
Zr33         O41   2.373   1_556  S
Zr33         O42   2.375       .  S
Zr33         O45   2.373       .  S
Zr33         O43   2.372   1_556  S
O34          H54   0.990   1_556  S
O34          H59   0.990       .  S
O35          H55   0.990       .  S
Zr36         O37   2.435       .  S
Zr36         O38   2.434       .  S
Zr36         O42   2.372       .  S
Zr36         O41   2.375   1_556  S
Zr36         O46   2.377   1_556  S
Zr36         O44   2.368       .  S
O37          H53   0.990   1_556  S
O38          H52   0.990   1_556  S
O38          H62   0.990       .  S
Zr39         O42   2.375       .  S
Zr39         O44   2.378       .  S
Zr39         O45   2.382       .  S
Zr40         O41   2.380       .  S
Zr40         O43   2.377       .  S
Zr40         O46   2.374       .  S
O41          H49   0.966       .  S
O44          H48   0.966       .  S
O45          H50   0.966       .  S
O63         Zr75   2.445       .  S
O63          C65   1.288       .  A
O64        Zr101   2.419       .  S
O64          C65   1.284       .  A
C65         C434   1.464       .  S
O66         Zr78   2.433       .  S
O66          C68   1.286       .  A
O67        Zr102   2.413       .  S
O67          C68   1.284       .  A
C68         C405   1.462       .  S
O69         Zr78   2.436   1_565  S
O69          C71   1.286       .  A
O70        Zr101   2.427       .  S
O70          C71   1.286       .  A
C71         C485   1.467       .  S
O72         Zr75   2.446   1_545  S
O72          C74   1.288       .  A
O73        Zr102   2.415       .  S
O73          C74   1.284       .  A
C74         C386   1.462       .  S
Zr75         O76   2.434   1_565  S
Zr75         O77   2.435       .  S
Zr75         O81   2.375       .  S
Zr75         O82   2.372   1_565  S
Zr75        O105   2.375   1_565  S
Zr75        O107   2.367       .  S
O76         H119   0.990   1_545  S
O77         H118   0.990       .  S
O77         H122   0.990   1_565  S
Zr78         O79   2.435       .  S
Zr78         O80   2.433   1_545  S
Zr78         O82   2.363       .  S
Zr78         O81   2.372   1_545  S
Zr78        O106   2.370   1_545  S
Zr78        O108   2.372       .  S
O79         H120   0.990       .  S
O79         H123   0.990   1_545  S
O80         H113   0.990       .  S
O81        Zr101   2.374       .  S
O82        Zr102   2.379       .  S
O82         H109   0.965       .  S
O83         Zr95   2.459   1_545  S
O83          C85   1.290       .  A
O84        Zr102   2.411       .  S
O84          C85   1.284       .  A
C85         C370   1.473       .  S
O86         Zr98   2.448   1_565  S
O86          C88   1.288       .  A
O87        Zr101   2.412       .  S
O87          C88   1.285       .  A
C88         C466   1.468       .  S
O89         Zr98   2.453       .  S
O89          C91   1.289       .  A
O90        Zr102   2.423       .  S
O90          C91   1.286       .  A
C91         C418   1.473       .  S
O92         Zr95   2.442       .  S
O92          C94   1.288       .  A
O93        Zr101   2.410       .  S
O93          C94   1.284       .  A
C94         C450   1.463       .  S
Zr95         O96   2.435       .  S
Zr95         O97   2.436       .  S
Zr95        O103   2.370   1_565  S
Zr95        O104   2.374       .  S
Zr95        O107   2.378       .  S
Zr95        O105   2.376   1_565  S
O96         H116   0.990   1_565  S
O96         H121   0.990   1_565  S
O97         H117   0.990   1_565  S
Zr98         O99   2.436       .  S
Zr98        O100   2.435   1_545  S
Zr98        O104   2.374   1_545  S
Zr98        O103   2.372       .  S
Zr98        O108   2.374       .  S
Zr98        O106   2.375   1_545  S
O99         H115   0.990   1_545  S
O100        H114   0.990   1_565  S
O100        H124   0.990       .  S
Zr101       O104   2.380       .  S
Zr101       O106   2.380       .  S
Zr101       O107   2.383       .  S
Zr102       O103   2.378       .  S
Zr102       O105   2.378       .  S
Zr102       O108   2.375       .  S
O103        H111   0.966       .  S
O106        H110   0.966       .  S
O107        H112   0.966       .  S
O125       Zr137   2.450   1_655  S
O125        C127   1.289       .  A
O126       Zr163   2.410       .  S
O126        C127   1.284       .  A
C127        C354   1.465       .  S
O128       Zr140   2.448       .  S
O128        C130   1.288       .  A
O129       Zr164   2.408       .  S
O129        C130   1.283       .  A
C130        C293   1.460       .  S
O131       Zr140   2.453   1_655  S
O131        C133   1.289       .  A
O132       Zr163   2.420       .  S
O132        C133   1.286       .  A
C133        C338   1.473       .  S
O134       Zr137   2.450       .  S
O134        C136   1.288       .  A
O135       Zr164   2.428       .  S
O135        C136   1.287       .  A
C136        C277   1.472       .  S
Zr137       O138   2.434       .  S
Zr137       O139   2.435       .  S
Zr137       O143   2.374   1_455  S
Zr137       O144   2.378       .  S
Zr137       O167   2.372       .  S
Zr137       O169   2.370   1_455  S
O138        H181   0.990       .  S
O139        H180   0.990       .  S
O139        H184   0.990       .  S
Zr140       O141   2.435       .  S
Zr140       O142   2.433       .  S
Zr140       O144   2.373       .  S
Zr140       O143   2.367   1_455  S
Zr140       O168   2.379   1_455  S
Zr140       O170   2.373       .  S
O141        H182   0.990       .  S
O141        H185   0.990   1_455  S
O142        H175   0.990       .  S
O143       Zr163   2.376       .  S
O144       Zr164   2.383       .  S
O144        H171   0.964       .  S
O145       Zr157   2.445       .  S
O145        C147   1.288       .  A
O146       Zr164   2.414       .  S
O146        C147   1.284       .  A
C147        C261   1.467       .  S
O148       Zr160   2.455   1_655  S
O148        C150   1.290       .  A
O149       Zr163   2.414       .  S
O149        C150   1.285       .  A
C150        C325   1.472       .  S
O151       Zr160   2.444       .  S
O151        C153   1.287       .  A
O152       Zr164   2.422       .  S
O152        C153   1.285       .  A
C153        C242   1.465       .  S
O154       Zr157   2.439   1_655  S
O154        C156   1.286       .  A
O155       Zr163   2.418       .  S
O155        C156   1.284       .  A
C156        C309   1.458       .  S
Zr157       O158   2.437       .  S
Zr157       O159   2.435       .  S
Zr157       O165   2.372       .  S
Zr157       O166   2.374   1_455  S
Zr157       O169   2.376   1_455  S
Zr157       O167   2.373       .  S
O158        H178   0.990       .  S
O158        H183   0.990       .  S
O159        H179   0.990       .  S
Zr160       O161   2.434       .  S
Zr160       O162   2.435       .  S
Zr160       O166   2.373   1_455  S
Zr160       O165   2.378       .  S
Zr160       O170   2.370       .  S
Zr160       O168   2.369   1_455  S
O161        H177   0.990       .  S
O162        H176   0.990       .  S
O162        H186   0.990       .  S
Zr163       O166   2.375       .  S
Zr163       O168   2.380       .  S
Zr163       O169   2.384       .  S
Zr164       O165   2.381       .  S
Zr164       O167   2.378       .  S
Zr164       O170   2.379       .  S
O165        H173   0.966       .  S
O168        H172   0.966       .  S
O169        H174   0.966       .  S
C187        C341   1.470       .  S
C187        N188   1.359       .  A
C187        N192   1.357       .  A
N188        C189   1.360       .  A
C189        C421   1.470       .  S
C189        N190   1.358       .  A
N190        C191   1.359       .  A
C191        C501   1.468       .  S
C191        N192   1.360       .  A
C193        C357   1.468       .  S
C193        N194   1.360       .  A
C193        N198   1.359       .  A
N194        C195   1.358       .  A
C195        C514   1.464       .  S
C195        N196   1.355       .  A
N196        C197   1.356       .  A
C197        C469   1.463       .  S
C197        N198   1.358       .  A
C199        C578   1.466       .  S
C199        N200   1.355       .  A
C199        N204   1.356       .  A
N200        C201   1.357       .  A
C201        C373   1.467       .  S
C201        N202   1.360       .  A
N202        C203   1.362       .  A
C203        C322   1.472       .  S
C203        N204   1.359       .  A
C205        C482   1.468       .  S
C205        N206   1.360       .  A
C205        N210   1.357       .  A
N206        C207   1.362       .  A
C207        C274   1.471       .  S
C207        N208   1.359       .  A
N208        C209   1.356       .  A
C209        C530   1.465       .  S
C209        N210   1.354       .  A
C211        C610   1.472       .  S
C211        N212   1.359       .  A
C211        N216   1.360       .  A
N212        C213   1.356       .  A
C213        C437   1.468       .  S
C213        N214   1.355       .  A
N214        C215   1.358       .  A
C215        C258   1.467       .  S
C215        N216   1.360       .  A
C217        C594   1.461       .  S
C217        N218   1.357       .  A
C217        N222   1.358       .  A
N218        C219   1.353       .  A
C219        C245   1.465       .  S
C219        N220   1.355       .  A
N220        C221   1.358       .  A
C221        C389   1.467       .  S
C221        N222   1.358       .  A
C223        C565   1.466       .  S
C223        N224   1.356       .  A
C223        N228   1.356       .  A
N224        C225   1.356       .  A
C225        C453   1.461       .  S
C225        N226   1.357       .  A
N226        C227   1.357       .  A
C227        C306   1.465       .  S
C227        N228   1.359       .  A
C229        C402   1.458       .  S
C229        N230   1.354       .  A
C229        N234   1.355       .  A
N230        C231   1.355       .  A
C231        C546   1.458       .  S
C231        N232   1.356       .  A
N232        C233   1.356       .  A
C233        C290   1.464       .  S
C233        N234   1.359       .  A
C235        S241   1.705       .  A
C235        C240   1.388       .  A
C235        C236   1.398       .  A
C236        C237   1.400       .  A
C236        H247   1.083       .  S
C237        C246   1.366       .  A
C237        C238   1.387       .  A
C238        S244   1.708       .  A
C238        C239   1.402       .  A
C239        C240   1.403       .  A
C239        H248   1.083       .  S
C240        C243   1.370       .  A
S241        C242   1.720       .  A
C242        C243   1.385       .  A
C243        H249   1.083       .  S
S244        C245   1.723       .  A
C245        C246   1.383       .  A
C246        H250   1.083       .  S
C251        S257   1.711       .  A
C251        C256   1.387       .  A
C251        C252   1.403       .  A
C252        C253   1.404       .  A
C252        H263   1.083       .  S
C253        C262   1.371       .  A
C253        C254   1.387       .  A
C254        S260   1.704       .  A
C254        C255   1.398       .  A
C255        C256   1.400       .  A
C255        H264   1.083       .  S
C256        C259   1.365       .  A
S257        C258   1.722       .  A
C258        C259   1.384       .  A
C259        H265   1.083       .  S
S260        C261   1.721       .  A
C261        C262   1.387       .  A
C262        H266   1.083       .  S
C267        S273   1.706       .  A
C267        C272   1.387       .  A
C267        C268   1.401       .  A
C268        C269   1.402       .  A
C268        H279   1.083       .  S
C269        C278   1.370       .  A
C269        C270   1.387       .  A
C270        S276   1.711       .  A
C270        C271   1.404       .  A
C271        C272   1.405       .  A
C271        H280   1.083       .  S
C272        C275   1.374       .  A
S273        C274   1.722       .  A
C274        C275   1.387       .  A
C275        H281   1.083       .  S
S276        C277   1.724       .  A
C277        C278   1.386       .  A
C278        H282   1.083       .  S
C283        S289   1.708       .  A
C283        C288   1.387       .  A
C283        C284   1.402       .  A
C284        C285   1.403       .  A
C284        H295   1.083       .  S
C285        C294   1.371       .  A
C285        C286   1.388       .  A
C286        S292   1.701       .  A
C286        C287   1.396       .  A
C287        C288   1.397       .  A
C287        H296   1.083       .  S
C288        C291   1.364       .  A
S289        C290   1.723       .  A
C290        C291   1.382       .  A
C291        H297   1.083       .  S
S292        C293   1.718       .  A
C293        C294   1.385       .  A
C294        H298   1.083       .  S
C299        S305   1.708       .  A
C299        C304   1.387       .  A
C299        C300   1.401       .  A
C300        C301   1.403       .  A
C300        H311   1.083       .  S
C301        C310   1.369       .  A
C301        C302   1.388       .  A
C302        S308   1.704       .  A
C302        C303   1.397       .  A
C303        C304   1.399       .  A
C303        H312   1.083       .  S
C304        C307   1.365       .  A
S305        C306   1.723       .  A
C306        C307   1.383       .  A
C307        H313   1.083       .  S
S308        C309   1.717       .  A
C309        C310   1.384       .  A
C310        H314   1.083       .  S
C315        S321   1.705       .  A
C315        C320   1.387       .  A
C315        C316   1.400       .  A
C316        C317   1.401       .  A
C316        H327   1.083       .  S
C317        C326   1.368       .  A
C317        C318   1.387       .  A
C318        S324   1.713       .  A
C318        C319   1.404       .  A
C319        C320   1.405       .  A
C319        H328   1.083       .  S
C320        C323   1.374       .  A
S321        C322   1.722       .  A
C322        C323   1.387       .  A
C323        H329   1.083       .  S
S324        C325   1.724       .  A
C325        C326   1.386       .  A
C326        H330   1.083       .  S
C331        S337   1.711       .  A
C331        C336   1.387       .  A
C331        C332   1.403       .  A
C332        C333   1.404       .  A
C332        H343   1.083       .  S
C333        C342   1.372       .  A
C333        C334   1.387       .  A
C334        S340   1.711       .  A
C334        C335   1.402       .  A
C335        C336   1.403       .  A
C335        H344   1.083       .  S
C336        C339   1.370       .  A
S337        C338   1.724       .  A
C338        C339   1.387       .  A
C339        H345   1.083       .  S
S340        C341   1.722       .  A
C341        C342   1.385       .  A
C342        H346   1.083       .  S
C347        S353   1.706       .  A
C347        C352   1.388       .  A
C347        C348   1.400       .  A
C348        C349   1.402       .  A
C348        H359   1.083       .  S
C349        C358   1.369       .  A
C349        C350   1.387       .  A
C350        S356   1.708       .  A
C350        C351   1.401       .  A
C351        C352   1.402       .  A
C351        H360   1.083       .  S
C352        C355   1.370       .  A
S353        C354   1.722       .  A
C354        C355   1.384       .  A
C355        H361   1.083       .  S
S356        C357   1.722       .  A
C357        C358   1.385       .  A
C358        H362   1.083       .  S
C363        S369   1.699       .  A
C363        C368   1.387       .  A
C363        C364   1.396       .  A
C364        C365   1.397       .  A
C364        H375   1.083       .  S
C365        C374   1.364       .  A
C365        C366   1.387       .  A
C366        S372   1.717       .  A
C366        C367   1.408       .  A
C367        C368   1.409       .  A
C367        H376   1.083       .  S
C368        C371   1.377       .  A
S369        C370   1.721       .  A
C370        C371   1.391       .  A
C371        H377   1.083       .  S
S372        C373   1.724       .  A
C373        C374   1.381       .  A
C374        H378   1.084       .  S
C379        S385   1.701       .  A
C379        C384   1.388       .  A
C379        C380   1.396       .  A
C380        C381   1.397       .  A
C380        H391   1.083       .  S
C381        C390   1.363       .  A
C381        C382   1.387       .  A
C382        S388   1.711       .  A
C382        C383   1.404       .  A
C383        C384   1.405       .  A
C383        H392   1.083       .  S
C384        C387   1.372       .  A
S385        C386   1.719       .  A
C386        C387   1.386       .  A
C387        H393   1.083       .  S
S388        C389   1.724       .  A
C389        C390   1.383       .  A
C390        H394   1.083       .  S
C395        S401   1.707       .  A
C395        C400   1.388       .  A
C395        C396   1.400       .  A
C396        C397   1.402       .  A
C396        H407   1.083       .  S
C397        C406   1.368       .  A
C397        C398   1.388       .  A
C398        S404   1.702       .  A
C398        C399   1.397       .  A
C399        C400   1.398       .  A
C399        H408   1.083       .  S
C400        C403   1.365       .  A
S401        C402   1.719       .  A
C402        C403   1.381       .  A
C403        H409   1.083       .  S
S404        C405   1.720       .  A
C405        C406   1.385       .  A
C406        H410   1.083       .  S
C411        S417   1.702       .  A
C411        C416   1.387       .  A
C411        C412   1.399       .  A
C412        C413   1.400       .  A
C412        H423   1.083       .  S
C413        C422   1.369       .  A
C413        C414   1.387       .  A
C414        S420   1.713       .  A
C414        C415   1.407       .  A
C415        C416   1.407       .  A
C415        H424   1.083       .  S
C416        C419   1.377       .  A
S417        C418   1.721       .  A
C418        C419   1.390       .  A
C419        H425   1.083       .  S
S420        C421   1.724       .  A
C421        C422   1.384       .  A
C422        H426   1.083       .  S
C427        S433   1.706       .  A
C427        C432   1.388       .  A
C427        C428   1.400       .  A
C428        C429   1.401       .  A
C428        H439   1.083       .  S
C429        C438   1.369       .  A
C429        C430   1.387       .  A
C430        S436   1.708       .  A
C430        C431   1.402       .  A
C431        C432   1.403       .  A
C431        H440   1.083       .  S
C432        C435   1.371       .  A
S433        C434   1.719       .  A
C434        C435   1.385       .  A
C435        H441   1.083       .  S
S436        C437   1.722       .  A
C437        C438   1.385       .  A
C438        H442   1.083       .  S
C443        S449   1.705       .  A
C443        C448   1.388       .  A
C443        C444   1.400       .  A
C444        C445   1.401       .  A
C444        H455   1.083       .  S
C445        C454   1.368       .  A
C445        C446   1.388       .  A
C446        S452   1.703       .  A
C446        C447   1.399       .  A
C447        C448   1.400       .  A
C447        H456   1.083       .  S
C448        C451   1.366       .  A
S449        C450   1.720       .  A
C450        C451   1.384       .  A
C451        H457   1.083       .  S
S452        C453   1.720       .  A
C453        C454   1.383       .  A
C454        H458   1.083       .  S
C459        S465   1.710       .  A
C459        C464   1.387       .  A
C459        C460   1.403       .  A
C460        C461   1.404       .  A
C460        H471   1.083       .  S
C461        C470   1.371       .  A
C461        C462   1.388       .  A
C462        S468   1.703       .  A
C462        C463   1.397       .  A
C463        C464   1.399       .  A
C463        H472   1.083       .  S
C464        C467   1.365       .  A
S465        C466   1.723       .  A
C466        C467   1.384       .  A
C467        H473   1.083       .  S
S468        C469   1.719       .  A
C469        C470   1.385       .  A
C470        H474   1.083       .  S
C475        S481   1.714       .  A
C475        C480   1.387       .  A
C475        C476   1.404       .  A
C476        C477   1.406       .  A
C476        H487   1.083       .  S
C477        C486   1.372       .  A
C477        C478   1.388       .  A
C478        S484   1.704       .  A
C478        C479   1.397       .  A
C479        C480   1.399       .  A
C479        H488   1.083       .  S
C480        C483   1.365       .  A
S481        C482   1.723       .  A
C482        C483   1.383       .  A
C483        H489   1.083       .  S
S484        C485   1.719       .  A
C485        C486   1.388       .  A
C486        H490   1.083       .  S
C491        S497   1.713       .  A
C491        C496   1.387       .  A
C491        C492   1.404       .  A
C492        C493   1.406       .  A
C492        H503   1.083       .  S
C493        C502   1.372       .  A
C493        C494   1.387       .  A
C494        S500   1.703       .  A
C494        C495   1.396       .  A
C495        C496   1.398       .  A
C495        H504   1.083       .  S
C496        C499   1.363       .  A
S497        C498   1.723       .  A
C498        C499   1.383       .  A
C499        H505   1.084       .  S
S500        C501   1.719       .  A
C501        C502   1.388       .  A
C502        H506   1.083       .  S
C507        S513   1.707       .  A
C507        C512   1.388       .  A
C507        C508   1.401       .  A
C508        C509   1.402       .  A
C508        H519   1.083       .  S
C509        C518   1.368       .  A
C509        C510   1.387       .  A
C510        S516   1.707       .  A
C510        C511   1.400       .  A
C511        C512   1.401       .  A
C511        H520   1.083       .  S
C512        C515   1.369       .  A
S513        C514   1.721       .  A
C514        C515   1.383       .  A
C515        H521   1.083       .  S
S516        C517   1.721       .  A
C517        C518   1.386       .  A
C518        H522   1.083       .  S
C523        S529   1.706       .  A
C523        C528   1.387       .  A
C523        C524   1.401       .  A
C524        C525   1.402       .  A
C524        H535   1.083       .  S
C525        C534   1.371       .  A
C525        C526   1.387       .  A
C526        S532   1.706       .  A
C526        C527   1.402       .  A
C527        C528   1.402       .  A
C527        H536   1.083       .  S
C528        C531   1.370       .  A
S529        C530   1.721       .  A
C530        C531   1.384       .  A
C531        H537   1.083       .  S
S532        C533   1.725       .  A
C533        C534   1.385       .  A
C534        H538   1.083       .  S
C539        S545   1.699       .  A
C539        C544   1.388       .  A
C539        C540   1.395       .  A
C540        C541   1.397       .  A
C540        H551   1.083       .  S
C541        C550   1.363       .  A
C541        C542   1.388       .  A
C542        S548   1.706       .  A
C542        C543   1.400       .  A
C543        C544   1.401       .  A
C543        H552   1.083       .  S
C544        C547   1.368       .  A
S545        C546   1.718       .  A
C546        C547   1.383       .  A
C547        H553   1.083       .  S
S548        C549   1.722       .  A
C549        C550   1.381       .  A
C550        H554   1.083       .  S
C555        S561   1.712       .  A
C555        C560   1.387       .  A
C555        C556   1.403       .  A
C556        C557   1.404       .  A
C556        H567   1.083       .  S
C557        C566   1.370       .  A
C557        C558   1.388       .  A
C558        S564   1.705       .  A
C558        C559   1.398       .  A
C559        C560   1.400       .  A
C559        H568   1.083       .  S
C560        C563   1.365       .  A
S561        C562   1.723       .  A
C562        C563   1.386       .  A
C563        H569   1.084       .  S
S564        C565   1.720       .  A
C565        C566   1.386       .  A
C566        H570   1.083       .  S
C571        S577   1.710       .  A
C571        C576   1.387       .  A
C571        C572   1.403       .  A
C572        C573   1.404       .  A
C572        H583   1.083       .  S
C573        C582   1.372       .  A
C573        C574   1.387       .  A
C574        S580   1.706       .  A
C574        C575   1.401       .  A
C575        C576   1.401       .  A
C575        H584   1.083       .  S
C576        C579   1.369       .  A
S577        C578   1.721       .  A
C578        C579   1.384       .  A
C579        H585   1.083       .  S
S580        C581   1.723       .  A
C581        C582   1.387       .  A
C582        H586   1.083       .  S
C587        S593   1.708       .  A
C587        C592   1.387       .  A
C587        C588   1.400       .  A
C588        C589   1.401       .  A
C588        H599   1.083       .  S
C589        C598   1.366       .  A
C589        C590   1.388       .  A
C590        S596   1.701       .  A
C590        C591   1.395       .  A
C591        C592   1.397       .  A
C591        H600   1.083       .  S
C592        C595   1.361       .  A
S593        C594   1.721       .  A
C594        C595   1.382       .  A
C595        H601   1.083       .  S
S596        C597   1.717       .  A
C597        C598   1.383       .  A
C598        H602   1.083       .  S
C603        S609   1.712       .  A
C603        C608   1.387       .  A
C603        C604   1.404       .  A
C604        C605   1.405       .  A
C604        H615   1.083       .  S
C605        C614   1.372       .  A
C605        C606   1.388       .  A
C606        S612   1.705       .  A
C606        C607   1.398       .  A
C607        C608   1.400       .  A
C607        H616   1.083       .  S
C608        C611   1.366       .  A
S609        C610   1.725       .  A
C610        C611   1.385       .  A
C611        H617   1.083       .  S
S612        C613   1.719       .  A
C613        C614   1.386       .  A
C614        H618   1.083       .  S
