geometry optimzed in LAMMPS
_audit_creation_date              2020-12-01 
_audit_creation_method            'lammps2cif' 
_symmetry_space_group_name_H-M    'P1' 
_symmetry_Int_Tables_number       1 
_symmetry_cell_setting            triclinic 
loop_ 
_symmetry_equiv_pos_as_xyz 
  x,y,z 
_cell_length_a                    56.3884774 
_cell_length_b                    56.22930758870004 
_cell_length_c                    44.16877634063272 
_cell_angle_alpha                 109.8643250064389 
_cell_angle_beta                  72.93236325604043 
_cell_angle_gamma                 129.26507924114105 
loop_ 
_atom_site_label 
_atom_site_type_symbol 
_atom_site_fract_x 
_atom_site_fract_y 
_atom_site_fract_z 
_atom_site_charge 
C1          C  0.33892383  0.14470801  0.98829098     0.80200
N2          N  0.30834529  0.13117289  0.99601101    -0.78100
C3          C  0.29658266  0.14653345  0.99784431     0.82600
N4          N  0.31621134  0.17593356  0.99158735    -0.78100
C5          C  0.34693969  0.18996897  0.98462231     0.82700
N6          N  0.35825981  0.17415751  0.98250299    -0.79800
C7          C  0.34291414  0.14825466  0.23343945     0.80200
N8          N  0.31262001  0.12819869  0.22931450    -0.78100
C9          C  0.29820630  0.13872184  0.22500622     0.82600
N10         N  0.31421546  0.16939512  0.22448893    -0.78100
C11         C  0.34450140  0.18968976  0.22908978     0.82700
N12         N  0.35876273  0.17900453  0.23356815    -0.79800
C13         C  0.14846592  0.33641640  0.30572271     0.80200
N14         N  0.12885141  0.30608196  0.30907260    -0.78100
C15         C  0.13987391  0.29125905  0.31122657     0.82600
N16         N  0.17072069  0.30689887  0.31003736    -0.78100
C17         C  0.19057695  0.33701277  0.30582714     0.82700
N18         N  0.17926998  0.35170083  0.30397519    -0.79800
C19         C  0.14498448  0.33672539  0.05634787     0.80200
N20         N  0.17565403  0.35530486  0.05870193    -0.78100
C21         C  0.18945853  0.34251210  0.05873208     0.82600
N22         N  0.17225414  0.31124107  0.05728634    -0.78100
C23         C  0.14153679  0.29245162  0.05519995     0.82700
N24         N  0.12811300  0.30541455  0.05449324    -0.79800
O25         O  0.05155127  0.45753565  0.33152218    -0.75300
O26         O  0.04996168  0.45680705  0.38346269    -0.54200
C27         C  0.05766574  0.45179042  0.35282645     0.78400
O28         O  0.04614872  0.08636161  0.38025561    -0.59900
O29         O  0.99984370  0.05835721  0.36110809    -0.53000
C30         C  0.02704942  0.08352274  0.36643381     0.70400
O31         O  0.08916433  0.06417908  0.42784414    -0.74500
O32         O  0.07375999  0.51643216  0.43324439    -0.55100
C33         C  0.09340395  0.04761791  0.43670288     0.76400
O34         O  0.00984008  0.48201777  0.28762437    -0.59600
O35         O  0.48040794  0.00330401  0.31613591    -0.52800
C36         C  0.49536695  0.49377212  0.28846000     0.73000
Zr37       Zr  0.02423676  0.47744313  0.33072092     2.54700
O38         O  0.07426361  0.50988581  0.30120462    -0.80200
O39         O  0.50847373  0.43372478  0.28856490    -0.93600
Zr40       Zr  0.04904622  0.05515211  0.40455243     2.64700
O41         O  0.10059609  0.09093629  0.37993214    -0.98600
O42         O  0.05571403  0.09816624  0.44897586    -0.80600
O43         O  0.05028022  0.50895865  0.37775555    -0.84000
O44         O  0.02536703  0.02462666  0.35594280    -2.18700
O45         O  0.40630457  0.42229940  0.36197741    -0.67400
O46         O  0.42287631  0.46859344  0.35312541    -0.51900
C47         C  0.40268525  0.43897549  0.35247794     0.71400
O48         O  0.48295427  0.99832242  0.50340223    -0.60300
O49         O  0.01421506  0.48012081  0.47516603    -0.52300
C50         C  0.49077405  0.49287069  0.00682133     0.73200
O51         O  0.44439326  0.02746030  0.46023457    -0.71700
O52         O  0.44441626  0.02758148  0.40852699    -0.50400
C53         C  0.43764022  0.03302516  0.43934695     0.74600
O54         O  0.44838462  0.39773327  0.40678893    -0.67000
O55         O  0.49408912  0.42562435  0.42749069    -0.54200
C56         C  0.46709084  0.40046278  0.42106728     0.73000
Zr57       Zr  0.44543021  0.43050164  0.38601319     2.77500
O58         O  0.39912100  0.40093709  0.42139026    -0.97800
O59         O  0.42954594  0.38530239  0.34118981    -0.78600
Zr60       Zr  0.47063091  0.00638206  0.46080405     2.70100
O61         O  0.42046878  0.47078903  0.48232388    -0.79800
O62         O  0.98084041  0.04431033  0.50649286    -0.98900
Zr63       Zr  0.02188245  0.47725538  0.41733469     2.21500
Zr64       Zr  0.47307229  0.00788804  0.37403803     2.11100
O65         O  0.44570422  0.47530492  0.40928450    -2.47600
O66         O  0.47020018  0.46049202  0.43406083    -0.79600
O67         O  0.47283944  0.46166644  0.34643567    -0.71800
O68         O  0.02231800  0.02346668  0.44381139    -2.32800
O69         O  0.49682552  0.44658321  0.37181845    -2.29000
O70         O  0.99726764  0.03751556  0.41911322    -0.73600
H71         H  0.03545598  0.03708722  0.33968694     0.78400
H72         H  0.03281011  0.03503962  0.46302910     0.79500
H73         H  0.42491896  0.46925182  0.41422578     0.81700
H74         H  0.49673312  0.42841061  0.36392188     0.79300
H75         H  0.04186912  0.10213249  0.44591018     0.42400
H76         H  0.99672227  0.06446267  0.49931546     0.41300
H77         H  0.42223704  0.47948142  0.50582340     0.41000
H78         H  0.39242370  0.41469502  0.43177770     0.39000
H79         H  0.40717017  0.37000443  0.34677931     0.42100
H80         H  0.49526212  0.41535825  0.29894254     0.36900
H81         H  0.07291801  0.52388068  0.29410958     0.43000
H82         H  0.09969106  0.08190306  0.35642139     0.39400
H83         H  0.38347452  0.38318818  0.40666278     0.44300
H84         H  0.02802903  0.43399265  0.27612208     0.43000
H85         H  0.10293686  0.11055798  0.38288319     0.43200
H86         H  0.46667355  0.05066656  0.01790400     0.43500
O87         O  0.02938479  0.43921716  0.08437277    -0.75300
O88         O  0.02881310  0.44055210  0.13678196    -0.54200
C89         C  0.03449031  0.43286264  0.10600707     0.78400
O90         O  0.06016603  0.08625370  0.12496312    -0.59900
O91         O  0.01427442  0.06648895  0.11020072    -0.53000
C92         C  0.04302110  0.08798697  0.11322457     0.70400
O93         O  0.08715888  0.04742736  0.17258285    -0.74500
O94         O  0.06070626  0.50088790  0.18527832    -0.55100
C95         C  0.08480695  0.02891786  0.18614446     0.76400
O96         O  0.99917903  0.47570896  0.04021025    -0.59600
O97         O  0.48007446  0.00642288  0.06783233    -0.52800
C98         C  0.49052808  0.49293443  0.04030094     0.73000
Zr99       Zr  0.00719251  0.46423460  0.08303438     2.54700
O100        O  0.04884399  0.47557785  0.03941284    -0.80200
O101        O  0.47615109  0.41567815  0.05266889    -0.93600
Zr102      Zr  0.05450952  0.04894993  0.14809943     2.64700
O103        O  0.09993749  0.06292449  0.10933545    -0.98600
O104        O  0.08410319  0.09980419  0.18421993    -0.80600
O105        O  0.03974406  0.49468803  0.12531402    -0.84000
O106        O  0.02399728  0.01906012  0.10412624    -2.18700
O107        O  0.39961817  0.43971884  0.12546505    -0.67400
O108        O  0.42550466  0.48608040  0.10978087    -0.51900
C109        C  0.40136786  0.45844843  0.11301062     0.71400
O110        O  0.48411953  0.00891158  0.25733219    -0.60300
O111        O  0.00444789  0.47837234  0.22855744    -0.52300
C112        C  0.49448267  0.49389118  0.25588348     0.73200
O113        O  0.45909742  0.04880181  0.21264125    -0.71700
O114        O  0.45736393  0.04519997  0.16019499    -0.50400
C115        C  0.45296789  0.05413414  0.19097277     0.74600
O116        O  0.42630450  0.39994897  0.16999838    -0.67000
O117        O  0.47194383  0.41992728  0.18554938    -0.54200
C118        C  0.44341159  0.39796546  0.18138911     0.73000
Zr119      Zr  0.43278136  0.43890470  0.14924337     2.77500
O120        O  0.38826861  0.42408702  0.18972010    -0.97800
O121        O  0.40385556  0.38911992  0.11145097    -0.78600
Zr122      Zr  0.47852427  0.02117810  0.21366775     2.70100
O123        O  0.43531904  0.50819738  0.25128346    -0.79800
O124        O  0.01150253  0.07277297  0.24537300    -0.98900
Zr125      Zr  0.00931624  0.47033974  0.17035397     2.21500
Zr126      Zr  0.47715379  0.01573648  0.12636140     2.11100
O127        O  0.44708840  0.49074853  0.16728471    -2.47600
O128        O  0.46283020  0.46853019  0.19343568    -0.79600
O129        O  0.46202108  0.46347140  0.10431466    -0.71800
O130        O  0.02516017  0.02495255  0.19322412    -2.32800
O131        O  0.47796445  0.44114603  0.13033390    -2.29000
O132        O  0.00943184  0.04712361  0.16651980    -0.73600
H133        H  0.03513254  0.02941909  0.08601510     0.78400
H134        H  0.03737746  0.03590588  0.21112538     0.79500
H135        H  0.42885235  0.49009923  0.17369649     0.81700
H136        H  0.47283907  0.42030664  0.12399485     0.79300
H137        H  0.06902327  0.09945648  0.20283847     0.42400
H138        H  0.01862403  0.08816213  0.23270910     0.41300
H139        H  0.41799021  0.48734385  0.24113880     0.41000
H140        H  0.38427456  0.43953406  0.19245077     0.39000
H141        H  0.41945461  0.38968123  0.09342317     0.42100
H142        H  0.48981034  0.41586537  0.03249800     0.36900
H143        H  0.06750820  0.49478277  0.04942598     0.43000
H144        H  0.11732879  0.08184432  0.12145827     0.39400
H145        H  0.37087494  0.40411159  0.17853714     0.44300
H146        H  0.96221597  0.41210574  0.04078671     0.43000
H147        H  0.10227439  0.04620187  0.10633211     0.43200
H148        H  0.52637771  0.07262301  0.25352549     0.43500
C149        C  0.12277959  0.25945200  0.05884451     0.01300
C150        C  0.13518975  0.24224147  0.04529635     0.04100
C151        C  0.12153003  0.21423210  0.05473217    -0.11900
C152        C  0.09398939  0.20184386  0.07565995     0.23400
C153        C  0.07966617  0.21701745  0.08652903    -0.12500
C154        C  0.09423811  0.24612103  0.07884437     0.04800
C155        C  0.08002333  0.17256210  0.08578367     0.27200
C156        C  0.06337983  0.14348601  0.06435046    -0.13200
C157        C  0.05237745  0.11587172  0.07271286     0.05300
C158        C  0.05700816  0.11715883  0.10314857    -0.09200
C159        C  0.07298628  0.14628072  0.12497329     0.06200
C160        C  0.08459448  0.17394379  0.11619364    -0.13500
Br161      Br  0.04005913  0.19778498  0.11223941    -0.05600
Br162      Br  0.18150706  0.25637736  0.51527525     0.00000
Br163      Br  0.03235548  0.07671367  0.04160035     0.00500
Br164      Br  0.10634527  0.21377127  0.14605357    -0.03900
Br165      Br  0.07492213  0.26737561  0.09751830     0.00600
Br166      Br  0.14086502  0.19299738  0.03947281    -0.03200
Br167      Br  0.05538200  0.14168239  0.02370500    -0.04100
Br168      Br  0.07752933  0.14844661  0.16773142    -0.00100
C169        C  0.22194386  0.36268331  0.06479153     0.01300
C170        C  0.24526090  0.38556341  0.04622325     0.04100
C171        C  0.27628166  0.40324136  0.05134147    -0.10700
C172        C  0.28387614  0.39812226  0.07494878     0.23400
C173        C  0.26070525  0.37550156  0.09354784    -0.12500
C174        C  0.22974164  0.35863586  0.08934606     0.04800
C175        C  0.31612159  0.41699451  0.08128108     0.27200
C176        C  0.33439986  0.40670233  0.06376565    -0.13200
C177        C  0.36323054  0.42160961  0.07334495     0.05300
C178        C  0.37349520  0.44642398  0.10063841    -0.09200
C179        C  0.35580899  0.45759856  0.11735610     0.06200
C180        C  0.32726985  0.44318605  0.10728185    -0.13500
Br181      Br  0.27153645  0.36716218  0.12439960    -0.05600
Br182      Br  0.24475199  0.37677868  0.49912325     0.00000
Br183      Br  0.38844844  0.40754380  0.04977232     0.00500
Br184      Br  0.30280949  0.45837945  0.12973194    -0.03900
Br185      Br  0.19823065  0.33255039  0.11972268     0.00600
Br186      Br  0.31888205  0.42221841  0.51174350    -0.03200
Br187      Br  0.31925425  0.37126578  0.02772498    -0.04100
Br188      Br  0.36930214  0.49062044  0.15558906    -0.00100
C189        C  0.04821762  0.41571765  0.09452273     0.01300
C190        C  0.03356167  0.38739198  0.10420345     0.04100
C191        C  0.04810376  0.37265209  0.09574423    -0.11900
C192        C  0.07695471  0.38592429  0.07708956     0.23400
C193        C  0.09037541  0.41257610  0.06505490    -0.12500
C194        C  0.07619426  0.42768095  0.07392569     0.04800
C195        C  0.09428587  0.37317496  0.07163108     0.27200
C196        C  0.11430387  0.38476786  0.09416864    -0.13200
C197        C  0.13132517  0.37315642  0.08903390     0.05300
C198        C  0.12908837  0.35071092  0.06062831    -0.09200
C199        C  0.10964738  0.33984645  0.03766425     0.06200
C200        C  0.09194138  0.35081834  0.04340482    -0.13500
Br201      Br  0.12846455  0.42839133  0.03665624    -0.05600
Br202      Br  0.99284055  0.36767699  0.12729055     0.00000
Br203      Br  0.15583736  0.38666380  0.12221089     0.00500
Br204      Br  0.06457594  0.33558900  0.01269275    -0.03900
Br205      Br  0.09628154  0.46553412  0.05888793     0.00600
Br206      Br  0.02860865  0.33425481  0.10942825    -0.03200
Br207      Br  0.11826740  0.41663079  0.13206696    -0.04100
Br208      Br  0.10800049  0.31079060  0.99782194    -0.00100
C209        C  0.03789890  0.11126740  0.35534620     0.01300
C210        C  0.06582542  0.12568210  0.33509875     0.04100
C211        C  0.07880990  0.15454941  0.32812644    -0.11900
C212        C  0.06319508  0.16845300  0.34003614     0.23400
C213        C  0.03422976  0.15305736  0.35839446    -0.12500
C214        C  0.02168045  0.12457022  0.36626614     0.04800
C215        C  0.07862924  0.20015625  0.33465248     0.27200
C216        C  0.09720787  0.22677768  0.35776797    -0.13200
C217        C  0.11677890  0.25670850  0.35025138     0.05300
C218        C  0.11830482  0.25997758  0.31932953    -0.09200
C219        C  0.09877831  0.23352598  0.29671042     0.06200
C220        C  0.07837834  0.20371959  0.30470020    -0.13500
Br221      Br  0.01258229  0.17178564  0.37375636    -0.05600
Br222      Br  0.08565761  0.10515927  0.31560504     0.00000
Br223      Br  0.14146846  0.29325154  0.38238730     0.00500
Br224      Br  0.05058667  0.16754513  0.27448841    -0.03900
Br225      Br  0.98331143  0.10485117  0.39354665     0.00600
Br226      Br  0.11878329  0.17585389  0.30340526    -0.03200
Br227      Br  0.09644797  0.22197821  0.39937186    -0.04100
Br228      Br  0.10191490  0.23765011  0.25385586    -0.00100
C229        C  0.22403736  0.35444358  0.30622131     0.01300
C230        C  0.23896992  0.34060426  0.28705011     0.04100
C231        C  0.26961631  0.35496916  0.29079094    -0.11900
C232        C  0.28609483  0.38417568  0.31217208     0.23400
C233        C  0.27199437  0.39917433  0.32959404    -0.12500
C234        C  0.24084376  0.38410459  0.32723655     0.04800
C235        C  0.31612339  0.39661258  0.32066190     0.27200
C236        C  0.31663751  0.39091296  0.34901603    -0.13200
C237        C  0.34480958  0.40416204  0.35907322     0.05300
C238        C  0.37284905  0.42304091  0.34059215    -0.09200
C239        C  0.37213876  0.42740850  0.31127153     0.06200
C240        C  0.34385875  0.41472146  0.30163372    -0.13500
Br241      Br  0.29483687  0.43917105  0.35907529    -0.05600
Br242      Br  0.21774467  0.30212462  0.25524133     0.00000
Br243      Br  0.34419122  0.39748227  0.39933901     0.00500
Br244      Br  0.34310757  0.42304523  0.26314454    -0.03900
Br245      Br  0.22094446  0.40306454  0.35547276     0.00600
Br246      Br  0.28808794  0.33326630  0.26897638    -0.03200
Br247      Br  0.27840411  0.36588135  0.37496797    -0.04100
Br248      Br  0.40964455  0.44915079  0.28331423    -0.00100
C249        C  0.13640033  0.35412902  0.30917120     0.01300
C250        C  0.14768519  0.37345427  0.28729513     0.04100
C251        C  0.13764363  0.39204428  0.29235981    -0.11900
C252        C  0.11533264  0.39019725  0.31834624     0.23400
C253        C  0.10322138  0.37009226  0.33942729    -0.12500
C254        C  0.11462869  0.35311977  0.33573481     0.04800
C255        C  0.10352272  0.40846457  0.32339195     0.27200
C256        C  0.11608886  0.43748748  0.34560747    -0.13200
C257        C  0.10192920  0.45257435  0.35386956     0.05300
C258        C  0.07437194  0.43785106  0.34118403    -0.09200
C259        C  0.06218662  0.40911452  0.31839527     0.06200
C260        C  0.07728268  0.39489160  0.30889863    -0.13500
Br261      Br  0.07049455  0.36544391  0.37317676    -0.05600
Br262      Br  0.17588810  0.37364541  0.24971575     0.00000
Br263      Br  0.12061354  0.49367813  0.38198943     0.00500
Br264      Br  0.06133255  0.35596730  0.27716762    -0.03900
Br265      Br  0.10224154  0.33107914  0.36913279     0.00600
Br266      Br  0.15390993  0.41967964  0.26360710    -0.03200
Br267      Br  0.15186754  0.45587107  0.36572943    -0.04100
Br268      Br  0.02338273  0.38746194  0.30236436    -0.00100
C269        C  0.35947867  0.13579211  0.23189775     0.01300
C270        C  0.37836105  0.14805029  0.25607849     0.04100
C271        C  0.39479508  0.13632705  0.25354821    -0.11900
C272        C  0.39243574  0.11276219  0.22675641     0.23400
C273        C  0.37296638  0.09995455  0.20314440    -0.12500
C274        C  0.35713540  0.11202664  0.20517027     0.04800
C275        C  0.41076755  0.10142817  0.22227585     0.27200
C276        C  0.43799584  0.11321822  0.20085555    -0.13200
C277        C  0.45206825  0.09790586  0.19066259     0.05300
C278        C  0.43916829  0.07117852  0.20256535    -0.09200
C279        C  0.41252953  0.06036464  0.22527714     0.06200
C280        C  0.39822659  0.07537982  0.23483592    -0.13500
Br281      Br  0.36790856  0.06558361  0.16803161    -0.05600
Br282      Br  0.38159402  0.18058342  0.29262422     0.00000
Br283      Br  0.48879464  0.11364961  0.16030018     0.00500
Br284      Br  0.35996588  0.05896493  0.26304528    -0.03900
Br285      Br  0.33475589  0.09773872  0.16948073     0.00600
Br286      Br  0.41990991  0.15179308  0.28684545    -0.03200
Br287      Br  0.45476145  0.14931314  0.18417523    -0.04100
Br288      Br  0.39348902  0.02331583  0.24133931    -0.00100
C289        C  0.42971704  0.36787686  0.18928162     0.01300
C290        C  0.43291573  0.36744402  0.21955572     0.04100
C291        C  0.42223467  0.33917633  0.22604551    -0.11900
C292        C  0.40734737  0.31110604  0.20277502     0.23400
C293        C  0.40393786  0.31133551  0.17259588    -0.12500
C294        C  0.41525502  0.33969755  0.16574099     0.04800
C295        C  0.39273675  0.28096022  0.21118270     0.27200
C296        C  0.40578456  0.26449626  0.19791815    -0.13200
C297        C  0.39000098  0.23444134  0.20367413     0.05300
C298        C  0.36246874  0.22206595  0.22501618    -0.09200
C299        C  0.35079445  0.23974639  0.24015579     0.06200
C300        C  0.36501163  0.26835791  0.23188700    -0.13500
Br301      Br  0.38353811  0.27263656  0.14073533    -0.05600
Br302      Br  0.45011855  0.40508100  0.25299476     0.00000
Br303      Br  0.40490879  0.20955398  0.17960029     0.00500
Br304      Br  0.34559128  0.28951011  0.24750864    -0.03900
Br305      Br  0.41220491  0.33970361  0.12335743     0.00600
Br306      Br  0.42761502  0.33859416  0.26693952    -0.03200
Br307      Br  0.44468995  0.28264902  0.17094230    -0.04100
Br308      Br  0.31604649  0.22560213  0.27311546    -0.00100
C309        C  0.26562014  0.11669591  0.21995130     0.01300
C310        C  0.24381784  0.09988566  0.24410897     0.04100
C311        C  0.21234976  0.08056119  0.24055050    -0.11900
C312        C  0.20288436  0.07847510  0.21312339     0.23400
C313        C  0.22462615  0.09367396  0.18803891    -0.12500
C314        C  0.25612365  0.11274423  0.19134939     0.04800
C315        C  0.17036443  0.06360670  0.21202409     0.27200
C316        C  0.15124479  0.03214370  0.19629523    -0.13200
C317        C  0.12237182  0.02007110  0.18913253     0.05300
C318        C  0.11276250  0.03970241  0.19786175    -0.09200
C319        C  0.13113165  0.07052517  0.21617810     0.06200
C320        C  0.15995157  0.08244055  0.22318561    -0.13500
Br321      Br  0.21092273  0.08932942  0.14990981    -0.05600
Br322      Br  0.25671101  0.10524373  0.28333893     0.00000
Br323      Br  0.10084315  0.47942227  0.15648872     0.00500
Br324      Br  0.18634266  0.12528948  0.24628097    -0.03900
Br325      Br  0.28600206  0.13306757  0.15662454     0.00600
Br326      Br  0.18203519  0.05818586  0.27380403    -0.03200
Br327      Br  0.16585274  0.00657363  0.18281805    -0.04100
Br328      Br  0.11731192  0.09680713  0.23162125    -0.00100
C329        C  0.36248335  0.13300462  0.48014698     0.01300
C330        C  0.35366563  0.11716520  0.50468208     0.04100
C331        C  0.36603089  0.10135487  0.50247443    -0.11900
C332        C  0.38665741  0.10092258  0.47552952     0.23400
C333        C  0.39602790  0.11726693  0.45143574    -0.12500
C334        C  0.38411144  0.13342532  0.45371100     0.04800
C335        C  0.39706558  0.08156134  0.47090815     0.27200
C336        C  0.42481415  0.09490479  0.48212309    -0.13200
C337        C  0.43720967  0.07808374  0.47313300     0.05300
C338        C  0.42227294  0.04833364  0.45206174    -0.09200
C339        C  0.39374119  0.03439013  0.44203497     0.06200
C340        C  0.38091779  0.05091439  0.45192550    -0.13500
Br341      Br  0.42422385  0.11627756  0.41445462    -0.05600
Br342      Br  0.38139705  0.16541516  0.03854505     0.00000
Br343      Br  0.47608894  0.09731821  0.48753144     0.00500
Br344      Br  0.34286425  0.03735871  0.00060173    -0.03900
Br345      Br  0.39596042  0.15387522  0.41898728     0.00600
Br346      Br  0.35451678  0.07981633  0.53588301    -0.03200
Br347      Br  0.44682258  0.13704736  0.50791868    -0.04100
Br348      Br  0.37685224  0.00178346  0.97889082    -0.00100
C349        C  0.37486739  0.22370126  0.46828814     0.01300
C350        C  0.36911718  0.22805000  0.44228136     0.04100
C351        C  0.38616204  0.25824676  0.43636208    -0.11900
C352        C  0.41007979  0.28394029  0.45524286     0.23400
C353        C  0.41684886  0.27967495  0.48031932    -0.12500
C354        C  0.39947369  0.24948555  0.48669397     0.04800
C355        C  0.42734256  0.31560476  0.44915753     0.27200
C356        C  0.45326370  0.32660375  0.42586755    -0.13200
C357        C  0.46761166  0.35542715  0.41770021     0.05300
C358        C  0.45541885  0.37265241  0.43226593    -0.09200
C359        C  0.42990854  0.36183885  0.45612116     0.06200
C360        C  0.41622421  0.33360900  0.46496577    -0.13500
Br361      Br  0.44897155  0.31568280  0.50673629    -0.05600
Br362      Br  0.33959615  0.19250367  0.41296051     0.00000
Br363      Br  0.50243031  0.37008952  0.38510567     0.00500
Br364      Br  0.35649265  0.29355661  0.97172877    -0.03900
Br365      Br  0.36321246  0.24269654  0.04730701     0.00600
Br366      Br  0.37596681  0.26478598  0.40323416    -0.03200
Br367      Br  0.46786982  0.30123987  0.40418292    -0.04100
Br368      Br  0.38710631  0.36415318  0.96304445    -0.00100
C369        C  0.27109076  0.12795230  0.48419898     0.01300
C370        C  0.25706290  0.14266671  0.50348669     0.04100
C371        C  0.22733881  0.13046283  0.49868761    -0.11900
C372        C  0.21035947  0.10191504  0.47658527     0.23400
C373        C  0.22282824  0.08508002  0.46036338    -0.12500
C374        C  0.25335515  0.09828220  0.46357627     0.04800
C375        C  0.18048583  0.09052663  0.46833289     0.27200
C376        C  0.15275171  0.07276511  0.48753020    -0.13200
C377        C  0.12440440  0.06006767  0.47800688     0.05300
C378        C  0.12347234  0.06375460  0.44835553    -0.09200
C379        C  0.15143828  0.08179009  0.42926880     0.06200
C380        C  0.17979620  0.09584702  0.43976366    -0.13500
Br381      Br  0.19833466  0.04452349  0.43243180    -0.05600
Br382      Br  0.27821320  0.17890632  0.53754934     0.00000
Br383      Br  0.07981838  0.04457283  0.01620695     0.00500
Br384      Br  0.21803370  0.12205861  0.41468831    -0.03900
Br385      Br  0.27087476  0.07625596  0.43801893     0.00600
Br386      Br  0.21084425  0.15397815  0.52080083    -0.03200
Br387      Br  0.14599556  0.07704063  0.04308501    -0.04100
Br388      Br  0.15136493  0.08500295  0.38719108    -0.00100
C389        C  0.34868403  0.14846027  0.48150123     0.80200
N390        N  0.31755167  0.13203160  0.48414941    -0.78100
C391        C  0.30490482  0.14568204  0.48298853     0.82600
N392        N  0.32370948  0.17574093  0.47877217    -0.78100
C393        C  0.35480037  0.19223797  0.47601781     0.82700
N394        N  0.36715160  0.17848136  0.47742815    -0.79800
C395        C  0.35231116  0.14722730  0.73817749     0.80200
N396        N  0.32207447  0.12811392  0.73382062    -0.78100
C397        C  0.30822209  0.14020316  0.73198599     0.82600
N398        N  0.32481359  0.17148065  0.73402528    -0.78100
C399        C  0.35506350  0.19099171  0.73894901     0.82700
N400        N  0.36871391  0.17863504  0.74095497    -0.79800
C401        C  0.14676292  0.33043407  0.79733343     0.80200
N402        N  0.13008114  0.30008991  0.79981907    -0.78100
C403        C  0.14425292  0.28660080  0.79577289     0.82600
N404        N  0.17549938  0.30418136  0.78998587    -0.78100
C405        C  0.19275363  0.33478826  0.78780423     0.82700
N406        N  0.17802725  0.34773526  0.79154738    -0.79800
C407        C  0.15536013  0.33514960  0.55315668     0.80200
N408        N  0.18619880  0.35397521  0.55446397    -0.78100
C409        C  0.20008923  0.34198542  0.55655164     0.82600
N410        N  0.18294391  0.31135022  0.55798835    -0.78100
C411        C  0.15210543  0.29230563  0.55649679     0.82700
N412        N  0.13845538  0.30441365  0.55404432    -0.79800
O413        O  0.04507047  0.44921066  0.84183419    -0.75300
O414        O  0.04256142  0.45216782  0.89539604    -0.54200
C415        C  0.05006086  0.44451830  0.86512970     0.78400
O416        O  0.04864340  0.08424255  0.87872996    -0.59900
O417        O  0.00498693  0.05558188  0.85389393    -0.53000
C418        C  0.03147520  0.08099834  0.86162272     0.70400
O419        O  0.08577293  0.05993157  0.93011971    -0.74500
O420        O  0.06630948  0.51355031  0.94113995    -0.55100
C421        C  0.08788250  0.04365363  0.94230048     0.76400
O422        O  0.01487006  0.47858302  0.78757376    -0.59600
O423        O  0.48650581  0.99899741  0.81077238    -0.52800
C424        C  0.50143219  0.48779879  0.78431234     0.73000
Zr425      Zr  0.02200661  0.47178528  0.83491317     2.54700
O426        O  0.07491706  0.50455316  0.81095245    -0.80200
O427        O  0.50473592  0.42391111  0.79639774    -0.93600
Zr428      Zr  0.04773829  0.05152899  0.90440792     2.64700
O429        O  0.09821302  0.08125976  0.87434107    -0.98600
O430        O  0.05889805  0.09612121  0.94888319    -0.80600
O431        O  0.04645111  0.50459759  0.88267394    -0.84000
O432        O  0.02561538  0.01942604  0.85525946    -2.18700
O433        O  0.40202286  0.42026038  0.86237199    -0.67400
O434        O  0.42271126  0.46508442  0.84649428    -0.51900
C435        C  0.40058556  0.43641430  0.84896904     0.71400
O436        O  0.47668052  0.00266165  0.00602054    -0.60300
O437        O  0.00406070  0.48048430  0.98157133    -0.52300
C438        C  0.49933695  0.48857356  0.50140283     0.73200
O439        O  0.44267398  0.02961682  0.95140174    -0.71700
O440        O  0.44398586  0.02415274  0.89752135    -0.50400
C441        C  0.43605346  0.03201776  0.92745981     0.74600
O442        O  0.44002786  0.39573332  0.91402303    -0.67000
O443        O  0.48304408  0.42460686  0.93980877    -0.54200
C444        C  0.45687449  0.39888677  0.93159059     0.73000
Zr445      Zr  0.43959891  0.42881843  0.89020898     2.77500
O446        O  0.39481269  0.41063895  0.93047912    -0.97800
O447        O  0.41807440  0.37800861  0.85309141    -0.78600
Zr448      Zr  0.46782099  0.00928080  0.95920919     2.70100
O449        O  0.41828200  0.48181376  0.98712128    -0.79800
O450        O  0.97975329  0.05254017  0.99836773    -0.98900
Zr451      Zr  0.01478804  0.47485969  0.92362617     2.21500
Zr452      Zr  0.47463358  0.00520460  0.86919798     2.11100
O453        O  0.44305746  0.47541104  0.90699998    -2.47600
O454        O  0.46384164  0.46158326  0.93822241    -0.79600
O455        O  0.47023280  0.45608558  0.84714150    -0.71800
O456        O  0.01765514  0.02261052  0.94601489    -2.32800
O457        O  0.49029699  0.44253564  0.87872921    -2.29000
O458        O  0.99674176  0.03655665  0.91429841    -0.73600
H459        H  0.03728714  0.03141672  0.83841701     0.78400
H460        H  0.02746469  0.03482915  0.96561894     0.79500
H461        H  0.42274066  0.47031683  0.91027190     0.81700
H462        H  0.48904240  0.42370107  0.87319568     0.79300
H463        H  0.07644863  0.11476457  0.93976861     0.42400
H464        H  0.98845166  0.06951024  0.98719247     0.41300
H465        H  0.41533651  0.46334207  0.98997192     0.41000
H466        H  0.39006746  0.42585140  0.93555010     0.39000
H467        H  0.39675408  0.36418080  0.86299414     0.42100
H468        H  0.49138946  0.40687142  0.80866310     0.36900
H469        H  0.08070056  0.49003832  0.80023525     0.43000
H470        H  0.09402461  0.07740151  0.85226411     0.39400
H471        H  0.37769965  0.39104666  0.91857978     0.44300
H472        H  0.02882403  0.42959635  0.78149620     0.43000
H473        H  0.10655334  0.10356739  0.88368871     0.43200
H474        H  0.46686152  0.04953145  0.51592288     0.43500
O475        O  0.03907348  0.43618174  0.58042301    -0.75300
O476        O  0.03960823  0.43818932  0.63281819    -0.54200
C477        C  0.04474212  0.43019143  0.60196738     0.78400
O478        O  0.07061523  0.08369920  0.62044450    -0.59900
O479        O  0.02465899  0.06419833  0.60603763    -0.53000
C480        C  0.05334278  0.08582523  0.60945184     0.70400
O481        O  0.09813775  0.04379170  0.66585279    -0.74500
O482        O  0.07097822  0.49687027  0.68074781    -0.55100
C483        C  0.09612392  0.02546840  0.67943784     0.76400
O484        O  0.01128225  0.47449748  0.53455724    -0.59600
O485        O  0.49031787  0.00328882  0.56276828    -0.52800
C486        C  0.49995395  0.48771796  0.53421025     0.73000
Zr487      Zr  0.01803023  0.46221107  0.57818832     2.54700
O488        O  0.06159407  0.47404479  0.53696361    -0.80200
O489        O  0.48577155  0.40895550  0.54760683    -0.93600
Zr490      Zr  0.06515782  0.04505140  0.64131446     2.64700
O491        O  0.11086695  0.06081589  0.60242900    -0.98600
O492        O  0.09450722  0.09562325  0.67772309    -0.80600
O493        O  0.04985341  0.49211758  0.62118742    -0.84000
O494        O  0.03448009  0.01539940  0.59738940    -2.18700
O495        O  0.40873243  0.43415736  0.62070382    -0.67400
O496        O  0.43548056  0.47961698  0.60296880    -0.51900
C497        C  0.41089742  0.45251334  0.60715255     0.71400
O498        O  0.49371506  0.00493758  0.75183077    -0.60300
O499        O  0.01342519  0.47550263  0.72547918    -0.52300
C500        C  0.50330499  0.48878109  0.75087829     0.73200
O501        O  0.46850241  0.04483416  0.70699414    -0.71700
O502        O  0.46750533  0.04215002  0.65461867    -0.50400
C503        C  0.46256947  0.05045071  0.68542349     0.74600
O504        O  0.43520576  0.39638421  0.66831305    -0.67000
O505        O  0.48107070  0.41525280  0.68227154    -0.54200
C506        C  0.45201073  0.39415494  0.67989245     0.73000
Zr507      Zr  0.44252912  0.43396918  0.64428853     2.77500
O508        O  0.39798422  0.41963741  0.68461630    -0.97800
O509        O  0.41504550  0.38371448  0.60689516    -0.78600
Zr510      Zr  0.48896130  0.01831538  0.70844802     2.70100
O511        O  0.44407302  0.50125768  0.74378463    -0.79800
O512        O  0.02319098  0.07043949  0.73617454    -0.98900
Zr513      Zr  0.01967779  0.46765972  0.66650245     2.21500
Zr514      Zr  0.48702955  0.01231989  0.62113708     2.11100
O515        O  0.45692308  0.48578974  0.66159357    -2.47600
O516        O  0.47323336  0.46406207  0.68786847    -0.79600
O517        O  0.47105384  0.45780228  0.59876463    -0.71800
O518        O  0.03592249  0.02116841  0.68670205    -2.32800
O519        O  0.48757029  0.43604635  0.62517968    -2.29000
O520        O  0.02025906  0.04348354  0.65994896    -0.73600
H521        H  0.04554591  0.02577586  0.57933719     0.78400
H522        H  0.04820778  0.03227510  0.70456156     0.79500
H523        H  0.43852266  0.48509867  0.66799306     0.81700
H524        H  0.48210755  0.41505444  0.61919371     0.79300
H525        H  0.07977805  0.09417494  0.69719452     0.42400
H526        H  0.02767247  0.08481879  0.72374956     0.41300
H527        H  0.42705207  0.48120206  0.73222512     0.41000
H528        H  0.39267616  0.43356590  0.68526616     0.39000
H529        H  0.43109519  0.38452498  0.58940235     0.42100
H530        H  0.49995578  0.40850989  0.52826327     0.36900
H531        H  0.07851133  0.49600500  0.54545849     0.43000
H532        H  0.10984954  0.04153206  0.59312118     0.39400
H533        H  0.38104532  0.39849482  0.67440204     0.44300
H534        H  0.98837475  0.41356522  0.52352729     0.43000
H535        H  0.10670149  0.06425028  0.58462873     0.43200
H536        H  0.50738536  0.07132033  0.76089201     0.43500
C537        C  0.13349434  0.25959781  0.56069571     0.01300
C538        C  0.14540523  0.24196650  0.54664541     0.04100
C539        C  0.13058684  0.21310436  0.55478149    -0.11900
C540        C  0.10221882  0.20015007  0.57441183     0.23400
C541        C  0.08855885  0.21601098  0.58572437    -0.12500
C542        C  0.10486123  0.24643305  0.58048048     0.04800
C543        C  0.08777879  0.17053320  0.58416762     0.27200
C544        C  0.07455666  0.14207007  0.56117952    -0.13200
C545        C  0.06457166  0.11463267  0.56904187     0.05300
C546        C  0.06702837  0.11536278  0.60027808    -0.09200
C547        C  0.08002986  0.14386915  0.62344504     0.06200
C548        C  0.09003628  0.17133868  0.61550396    -0.13500
Br549      Br  0.04771773  0.19608101  0.60890157    -0.05600
Br550      Br  0.16971633  0.25560918  0.01202407     0.00000
Br551      Br  0.04929402  0.07654871  0.53623928     0.00500
Br552      Br  0.10668704  0.21008641  0.64764713    -0.03900
Br553      Br  0.08895028  0.27050596  0.60375031     0.00600
Br554      Br  0.14979853  0.19173556  0.53983348    -0.03200
Br555      Br  0.07032737  0.14095877  0.51886282    -0.04100
Br556      Br  0.08358004  0.14542205  0.66635128    -0.00100
C557        C  0.23267225  0.36294310  0.56200533     0.01300
C558        C  0.25567028  0.38075196  0.53899369     0.04100
C559        C  0.28685305  0.40002244  0.54426945    -0.10700
C560        C  0.29482274  0.40176756  0.57269964     0.23400
C561        C  0.27180385  0.38452249  0.59596261    -0.12500
C562        C  0.24078016  0.36498368  0.59057494     0.04800
C563        C  0.32718614  0.41775511  0.57646431     0.27200
C564        C  0.33935173  0.40048790  0.56416381    -0.13200
C565        C  0.36690511  0.41199698  0.57407840     0.05300
C566        C  0.38298792  0.44142889  0.59533858    -0.09200
C567        C  0.37213624  0.45998519  0.60529614     0.06200
C568        C  0.34408840  0.44802589  0.59594494    -0.13500
Br569      Br  0.28297390  0.38625959  0.63447144    -0.05600
Br570      Br  0.23517104  0.39301058  0.01388062     0.00000
Br571      Br  0.38239159  0.38722864  0.55829690     0.00500
Br572      Br  0.32843723  0.47264879  0.61013672    -0.03900
Br573      Br  0.20957372  0.34100949  0.62259424     0.00600
Br574      Br  0.30864112  0.43404929  0.02577108    -0.03200
Br575      Br  0.31780227  0.36073324  0.53403645    -0.04100
Br576      Br  0.39436602  0.50085540  0.63332091    -0.00100
C577        C  0.05906579  0.41359747  0.58993918     0.01300
C578        C  0.04359459  0.38348820  0.59585872     0.04100
C579        C  0.05777694  0.36818371  0.58454377    -0.11900
C580        C  0.08757375  0.38322667  0.56797149     0.23400
C581        C  0.10252139  0.41258608  0.56074294    -0.12500
C582        C  0.08841781  0.42792956  0.57194744     0.04800
C583        C  0.10518434  0.37090405  0.56331784     0.27200
C584        C  0.12338762  0.38176900  0.58757283    -0.13200
C585        C  0.14137263  0.37146629  0.58328950     0.05300
C586        C  0.13951761  0.34864809  0.55562591    -0.09200
C587        C  0.12007276  0.33655257  0.53215077     0.06200
C588        C  0.10326967  0.34812099  0.53572196    -0.13500
Br589      Br  0.14291209  0.43218807  0.53666873    -0.05600
Br590      Br  0.00340064  0.36340092  0.62000762     0.00000
Br591      Br  0.16693692  0.38741428  0.61649667     0.00500
Br592      Br  0.07661781  0.33184869  0.50375618    -0.03900
Br593      Br  0.11086330  0.47002281  0.56556532     0.00600
Br594      Br  0.03728639  0.32716365  0.59273500    -0.03200
Br595      Br  0.12168739  0.40886843  0.62785045    -0.04100
Br596      Br  0.11655918  0.30424357  0.49510584    -0.00100
C597        C  0.04373418  0.10863940  0.84952231     0.01300
C598        C  0.05798846  0.11111430  0.81756515     0.04100
C599        C  0.07305692  0.13914960  0.80712661    -0.11900
C600        C  0.07261321  0.16422774  0.82826948     0.23400
C601        C  0.05636023  0.16065849  0.85945093    -0.12500
C602        C  0.04320231  0.13355085  0.87053772     0.04800
C603        C  0.09112056  0.19520070  0.81899540     0.27200
C604        C  0.11888673  0.22053429  0.83262703    -0.13200
C605        C  0.13623818  0.25018767  0.82484786     0.05300
C606        C  0.12626881  0.25477558  0.80280534    -0.09200
C607        C  0.09814203  0.22936801  0.78948587     0.06200
C608        C  0.08054810  0.19983086  0.79783938    -0.13500
Br609      Br  0.05250959  0.19320814  0.88716625    -0.05600
Br610      Br  0.05833147  0.07665258  0.78900901     0.00000
Br611      Br  0.17234523  0.28491957  0.84692747     0.00500
Br612      Br  0.04117633  0.16589481  0.78150133    -0.03900
Br613      Br  0.02583150  0.13119518  0.91505162     0.00600
Br614      Br  0.09535312  0.14368206  0.76450567    -0.03200
Br615      Br  0.13266664  0.21492622  0.86317875    -0.04100
Br616      Br  0.08359087  0.23435042  0.75923682    -0.00100
C617        C  0.22720582  0.35434539  0.78661666     0.01300
C618        C  0.24220618  0.33979546  0.77107781     0.04100
C619        C  0.27168977  0.35353828  0.77838060    -0.11900
C620        C  0.28758109  0.38308971  0.79932846     0.23400
C621        C  0.27487927  0.39992195  0.81088833    -0.12500
C622        C  0.24477656  0.38574351  0.80475284     0.04800
C623        C  0.31648102  0.39550672  0.81117622     0.27200
C624        C  0.31520544  0.39235501  0.84203166    -0.13200
C625        C  0.34250396  0.40576011  0.85456375     0.05300
C626        C  0.37135776  0.42114828  0.83559469    -0.09200
C627        C  0.37221342  0.42265057  0.80390783     0.06200
C628        C  0.34500856  0.41044072  0.79203515    -0.13500
Br629      Br  0.29855501  0.44198498  0.83671611    -0.05600
Br630      Br  0.22308207  0.30146260  0.73859431     0.00000
Br631      Br  0.33998763  0.40454187  0.89854096     0.00500
Br632      Br  0.34655379  0.41399343  0.74948192    -0.03900
Br633      Br  0.22850963  0.40991151  0.82259487     0.00600
Br634      Br  0.28951319  0.33088327  0.76148761    -0.03200
Br635      Br  0.27561328  0.36908937  0.86683685    -0.04100
Br636      Br  0.41036392  0.43978939  0.77586779    -0.00100
C637        C  0.13147213  0.34593942  0.80672298     0.01300
C638        C  0.12953048  0.35683289  0.78381688     0.04100
C639        C  0.11664347  0.37341775  0.79369228    -0.11900
C640        C  0.10363333  0.37707912  0.82595996     0.23400
C641        C  0.10429601  0.36486742  0.84849618    -0.12500
C642        C  0.11902915  0.35019270  0.83916046     0.04800
C643        C  0.08985670  0.39437975  0.83642889     0.27200
C644        C  0.10776397  0.42667414  0.85063144    -0.13200
C645        C  0.09480347  0.44322175  0.86045644     0.05300
C646        C  0.06393117  0.42750367  0.85589891    -0.09200
C647        C  0.04625565  0.39529251  0.84115346     0.06200
C648        C  0.05899251  0.37864459  0.83200789    -0.13500
Br649      Br  0.08508575  0.36846670  0.89219104    -0.05600
Br650      Br  0.14302682  0.34757482  0.73876738     0.00000
Br651      Br  0.11982209  0.48770777  0.87828222     0.00500
Br652      Br  0.03414849  0.33419629  0.81362870    -0.03900
Br653      Br  0.12332770  0.33715024  0.87121667     0.00600
Br654      Br  0.11763964  0.39204102  0.76342919    -0.03200
Br655      Br  0.15017535  0.44806634  0.85615212    -0.04100
Br656      Br  0.00449014  0.37391474  0.83325031    -0.00100
C657        C  0.36823261  0.13334795  0.73405831     0.01300
C658        C  0.38276484  0.13943907  0.75953647     0.04100
C659        C  0.39830149  0.12624425  0.75497447    -0.11900
C660        C  0.39976474  0.10758733  0.72472190     0.23400
C661        C  0.38479595  0.10112595  0.69942732    -0.12500
C662        C  0.36906721  0.11401820  0.70404652     0.04800
C663        C  0.41754119  0.09511529  0.71867767     0.27200
C664        C  0.44711409  0.11031453  0.70151333    -0.13200
C665        C  0.46144993  0.09519512  0.68933072     0.05300
C666        C  0.44765748  0.06638936  0.69734645    -0.09200
C667        C  0.41915672  0.05253105  0.71700984     0.06200
C668        C  0.40355065  0.06623912  0.72644471    -0.13500
Br669      Br  0.38586215  0.07449437  0.65837592    -0.05600
Br670      Br  0.38064080  0.16516265  0.80075857     0.00000
Br671      Br  0.49940563  0.11377436  0.66114587     0.00500
Br672      Br  0.36228635  0.04468168  0.74836335    -0.03900
Br673      Br  0.34988410  0.10621536  0.66858169     0.00600
Br674      Br  0.41721918  0.13330444  0.79006985    -0.03200
Br675      Br  0.46767750  0.15176748  0.69460005    -0.04100
Br676      Br  0.40001278  0.01349682  0.72916558    -0.00100
C677        C  0.43685658  0.36505791  0.69111459     0.01300
C678        C  0.43952986  0.36688319  0.72273346     0.04100
C679        C  0.42774916  0.33967046  0.73259402    -0.11900
C680        C  0.41232312  0.31035159  0.71125314     0.23400
C681        C  0.40802648  0.30806676  0.68028437    -0.12500
C682        C  0.42012071  0.33535416  0.67022717     0.04800
C683        C  0.39970909  0.28174188  0.72181237     0.27200
C684        C  0.41657536  0.26941370  0.71350904    -0.13200
C685        C  0.40296591  0.24014886  0.72016496     0.05300
C686        C  0.37325077  0.22454062  0.73774130    -0.09200
C687        C  0.35883486  0.23979088  0.75026574     0.06200
C688        C  0.37089461  0.26701481  0.74031462    -0.13500
Br689      Br  0.38558414  0.26742330  0.65173031    -0.05600
Br690      Br  0.45655245  0.40607659  0.75370437     0.00000
Br691      Br  0.42482776  0.22151932  0.70274128     0.00500
Br692      Br  0.34716493  0.28316050  0.75036871    -0.03900
Br693      Br  0.41375300  0.33157363  0.62773750     0.00600
Br694      Br  0.43254031  0.34231639  0.77540883    -0.03200
Br695      Br  0.45797647  0.29246587  0.69207234    -0.04100
Br696      Br  0.32365350  0.22474990  0.78265147    -0.00100
C697        C  0.27594283  0.11902279  0.72536788     0.01300
C698        C  0.25268186  0.10155586  0.74839681     0.04100
C699        C  0.22174281  0.08106364  0.74203906    -0.11900
C700        C  0.21410369  0.07854706  0.71295355     0.23400
C701        C  0.23741651  0.09553276  0.68964500    -0.12500
C702        C  0.26836139  0.11571419  0.69578188     0.04800
C703        C  0.18169110  0.06227281  0.70879104     0.27200
C704        C  0.16499375  0.03199069  0.68936262    -0.13200
C705        C  0.13644986  0.01937992  0.68050919     0.05300
C706        C  0.12439435  0.03693801  0.69147527    -0.09200
C707        C  0.14043698  0.06643097  0.71285794     0.06200
C708        C  0.16897345  0.07900528  0.72145869    -0.13500
Br709      Br  0.22661937  0.09240178  0.65008292    -0.05600
Br710      Br  0.26299986  0.10776275  0.78972979     0.00000
Br711      Br  0.11632403  0.47885976  0.64747752     0.00500
Br712      Br  0.19164379  0.11997611  0.74957394    -0.03900
Br713      Br  0.30017108  0.13885920  0.66365513     0.00600
Br714      Br  0.18950925  0.05776647  0.77374719    -0.03200
Br715      Br  0.18208699  0.00862880  0.67400963    -0.04100
Br716      Br  0.12385241  0.09014000  0.73044863    -0.00100
C717        C  0.35016171  0.12566134  0.98073508     0.01300
C718        C  0.37065861  0.13271667  0.99990995     0.04100
C719        C  0.38320748  0.11588837  0.99078435    -0.11900
C720        C  0.37392762  0.09088362  0.96345302     0.23400
C721        C  0.35219861  0.08291200  0.94525684    -0.12500
C722        C  0.34138846  0.10114680  0.95306323     0.04800
C723        C  0.38826858  0.07414602  0.95283861     0.27200
C724        C  0.41217942  0.08201995  0.92726596    -0.13200
C725        C  0.42652714  0.06693131  0.91760059     0.05300
C726        C  0.41830494  0.04507782  0.93485705    -0.09200
C727        C  0.39302283  0.03597144  0.95931281     0.06200
C728        C  0.37799113  0.05037382  0.96808490    -0.13500
Br729      Br  0.33739683  0.04717636  0.90949310    -0.05600
Br730      Br  0.32507143  0.11739480  0.54158359     0.00000
Br731      Br  0.45700157  0.07659216  0.88024931     0.00500
Br732      Br  0.34191005  0.03240067  0.43841642    -0.03900
Br733      Br  0.31705359  0.09451725  0.92398047     0.00600
Br734      Br  0.41384545  0.12774745  0.01503079    -0.03200
Br735      Br  0.42585920  0.11424570  0.90587398    -0.04100
Br736      Br  0.37230798  0.99291196  0.41473091    -0.00100
C737        C  0.36763209  0.22151850  0.97748942     0.01300
C738        C  0.37686947  0.22520518  0.94512514     0.04100
C739        C  0.39521345  0.25540131  0.93841997    -0.11900
C740        C  0.40506748  0.28190926  0.96408645     0.23400
C741        C  0.39709205  0.27820148  0.99634998    -0.12500
C742        C  0.37760110  0.24797632  0.00308031     0.04800
C743        C  0.41935978  0.31289084  0.95757612     0.27200
C744        C  0.45132859  0.33346288  0.94942111    -0.13200
C745        C  0.46405563  0.36202236  0.94150111     0.05300
C746        C  0.44481845  0.37058480  0.94293633    -0.09200
C747        C  0.41315886  0.35087577  0.95395087     0.06200
C748        C  0.40038621  0.32177186  0.96012381    -0.13500
Br749      Br  0.41203315  0.31467740  0.03122966    -0.05600
Br750      Br  0.36271185  0.18874546  0.91013074     0.00000
Br751      Br  0.50754629  0.38823694  0.92759354     0.00500
Br752      Br  0.38146109  0.31873283  0.49784079    -0.03900
Br753      Br  0.40934005  0.24404981  0.52097845     0.00600
Br754      Br  0.40540379  0.26044946  0.89428078    -0.03200
Br755      Br  0.47743519  0.32229113  0.94926236    -0.04100
Br756      Br  0.41310098  0.38528393  0.47604802    -0.00100
C757        C  0.26249759  0.12994939  0.00126893     0.01300
C758        C  0.25051183  0.14764302  0.01113712     0.04100
C759        C  0.22052090  0.13350084  0.00518002    -0.11900
C760        C  0.20223719  0.10172944  0.98980806     0.23400
C761        C  0.21221023  0.08304355  0.98410802    -0.12500
C762        C  0.24186392  0.09674297  0.99071694     0.04800
C763        C  0.17303826  0.08809702  0.97828061     0.27200
C764        C  0.14535371  0.07515825  0.99894391    -0.13200
C765        C  0.11746080  0.06084774  0.98728427     0.05300
C766        C  0.11726226  0.05952677  0.95487060    -0.09200
C767        C  0.14529931  0.07350224  0.93450486     0.06200
C768        C  0.17304398  0.08735974  0.94610726    -0.13500
Br769      Br  0.18525209  0.03862664  0.96582969    -0.05600
Br770      Br  0.27403910  0.19092372  0.03417983     0.00000
Br771      Br  0.08701182  0.03823804  0.50612518     0.00500
Br772      Br  0.21116158  0.10476304  0.91775096    -0.03900
Br773      Br  0.25229014  0.06861179  0.98530558     0.00600
Br774      Br  0.20451069  0.15769021  0.01713590    -0.03200
Br775      Br  0.15368758  0.06496475  0.52625558    -0.04100
Br776      Br  0.14603801  0.07305282  0.89034568    -0.00100
C777        C  0.33892083  0.64345031  0.98317962     0.80200
N778        N  0.30841691  0.63031085  0.99072592    -0.78100
C779        C  0.29717727  0.64626202  0.99291554     0.82600
N780        N  0.31727216  0.67588432  0.98734393    -0.78100
C781        C  0.34791463  0.68947579  0.98064541     0.82700
N782        N  0.35872804  0.67312465  0.97811273    -0.79800
C783        C  0.34196451  0.64780284  0.23461591     0.80200
N784        N  0.31150693  0.62823980  0.23117433    -0.78100
C785        C  0.29740935  0.63921885  0.22709745     0.82600
N786        N  0.31397466  0.66988894  0.22617357    -0.78100
C787        C  0.34443859  0.68964900  0.22996794     0.82700
N788        N  0.35833842  0.67848845  0.23414253    -0.79800
C789        C  0.14904493  0.83795595  0.30514905     0.80200
N790        N  0.12904758  0.80736733  0.30781476    -0.78100
C791        C  0.13972129  0.79191939  0.30919217     0.82600
N792        N  0.17048264  0.80727032  0.30821791    -0.78100
C793        C  0.19062341  0.83762303  0.30483879     0.82700
N794        N  0.17973178  0.85287161  0.30359314    -0.79800
C795        C  0.14540728  0.83745641  0.05844981     0.80200
N796        N  0.17606224  0.85617821  0.06101084    -0.78100
C797        C  0.19013891  0.84337615  0.06008102     0.82600
N798        N  0.17318798  0.81192975  0.05749846    -0.78100
C799        C  0.14248670  0.79296415  0.05516649     0.82700
N800        N  0.12885944  0.80602469  0.05544754    -0.79800
O801        O  0.05285741  0.96052689  0.33383808    -0.75300
O802        O  0.05141820  0.95941075  0.38555142    -0.54200
C803        C  0.05930608  0.95480348  0.35487607     0.78400
O804        O  0.04865992  0.58686052  0.37780665    -0.59900
O805        O  0.00259647  0.55886858  0.35810785    -0.53000
C806        C  0.02967918  0.58413506  0.36390143     0.70400
O807        O  0.09097299  0.56228182  0.42249743    -0.74500
O808        O  0.07354168  0.01793042  0.43591191    -0.55100
C809        C  0.09441833  0.54575513  0.43253908     0.76400
O810        O  0.00967761  0.98448869  0.29153389    -0.59600
O811        O  0.48186357  0.50351709  0.31225012    -0.52800
C812        C  0.49433477  0.99395483  0.29244774     0.73000
Zr813      Zr  0.02402190  0.97912558  0.33381058     2.54700
O814        O  0.07262547  0.00966297  0.30130035    -0.80200
O815        O  0.50310303  0.93138460  0.29542358    -0.93600
Zr816      Zr  0.05106217  0.55426110  0.40024742     2.64700
O817        O  0.10165362  0.58658876  0.37169658    -0.98600
O818        O  0.06091356  0.59785486  0.44545419    -0.80600
O819        O  0.04994055  0.01084829  0.38096916    -0.84000
O820        O  0.02689048  0.52372044  0.35189512    -2.18700
O821        O  0.40381918  0.92277808  0.36767654    -0.67400
O822        O  0.42140216  0.96873944  0.35688449    -0.51900
C823        C  0.40067792  0.93928979  0.35717409     0.71400
O824        O  0.48440801  0.49801659  0.49896294    -0.60300
O825        O  0.01346510  0.98014863  0.47752563    -0.52300
C826        C  0.48995229  0.99239769  0.01084671     0.73200
O827        O  0.44525751  0.52676701  0.45571637    -0.71700
O828        O  0.44542524  0.52680287  0.40396490    -0.50400
C829        C  0.43854221  0.53228620  0.43472713     0.74600
O830        O  0.44611519  0.89811298  0.41184043    -0.67000
O831        O  0.49181783  0.92599208  0.43258621    -0.54200
C832        C  0.46485631  0.90090665  0.42612072     0.73000
Zr833      Zr  0.44341566  0.93088767  0.39085881     2.77500
O834        O  0.39632181  0.90168552  0.42567867    -0.97800
O835        O  0.42950017  0.88616058  0.34577339    -0.78600
Zr836      Zr  0.47173495  0.50588879  0.45647611     2.70100
O837        O  0.41913695  0.97184909  0.48668902    -0.79800
O838        O  0.98320485  0.54643598  0.50222887    -0.98900
Zr839      Zr  0.02178266  0.97823941  0.41975157     2.21500
Zr840      Zr  0.47439038  0.50738746  0.36996141     2.11100
O841        O  0.44448899  0.97613015  0.41370052    -2.47600
O842        O  0.46869041  0.96078016  0.43861792    -0.79600
O843        O  0.47091058  0.96183114  0.35105469    -0.71800
O844        O  0.02400395  0.52340399  0.44031993    -2.32800
O845        O  0.49472635  0.94656336  0.37660219    -2.29000
O846        O  0.99966463  0.53783470  0.41514509    -0.73600
H847        H  0.03700688  0.53609192  0.33555012     0.78400
H848        H  0.03470277  0.53509711  0.45940223     0.79500
H849        H  0.42379951  0.97030928  0.41875779     0.81700
H850        H  0.49447913  0.92830343  0.36875841     0.79300
H851        H  0.08281922  0.60963724  0.44833768     0.42400
H852        H  0.99992532  0.56618995  0.49457207     0.41300
H853        H  0.41948175  0.98334849  0.50941331     0.41000
H854        H  0.39035372  0.91603434  0.43640661     0.39000
H855        H  0.40695552  0.87395892  0.34598153     0.42100
H856        H  0.49084197  0.91388972  0.30695977     0.36900
H857        H  0.08444969  0.03064797  0.31557323     0.43000
H858        H  0.09873287  0.57714417  0.34847916     0.39400
H859        H  0.38059049  0.88464536  0.41073190     0.44300
H860        H  0.02453647  0.93307030  0.28034597     0.43000
H861        H  0.10568804  0.60716269  0.37521516     0.43200
H862        H  0.46679932  0.55599434  0.00501635     0.43500
O863        O  0.02992528  0.94144694  0.08931419    -0.75300
O864        O  0.02987759  0.94344518  0.14177950    -0.54200
C865        C  0.03554151  0.93561227  0.11103080     0.78400
O866        O  0.06014534  0.58468028  0.12116002    -0.59900
O867        O  0.01419764  0.56528077  0.10690278    -0.53000
C868        C  0.04295673  0.58675204  0.10998816     0.70400
O869        O  0.08738351  0.54712186  0.16923563    -0.74500
O870        O  0.06006710  0.00180705  0.18998107    -0.55100
C871        C  0.08520011  0.52847407  0.18235269     0.76400
O872        O  0.99960752  0.97789133  0.04449469    -0.59600
O873        O  0.48091009  0.50702024  0.06391692    -0.52800
C874        C  0.48955780  0.99223022  0.04421438     0.73000
Zr875      Zr  0.00766897  0.96641640  0.08743528     2.54700
O876        O  0.05006332  0.97773544  0.04473849    -0.80200
O877        O  0.47510580  0.91488995  0.05698548    -0.93600
Zr878      Zr  0.05446990  0.54672443  0.14311070     2.64700
O879        O  0.09800019  0.55732217  0.10240703    -0.98600
O880        O  0.08621862  0.59840907  0.17685817    -0.80600
O881        O  0.03978841  0.99695862  0.13003270    -0.84000
O882        O  0.02375276  0.51694808  0.09948433    -2.18700
O883        O  0.39976597  0.93945907  0.12816940    -0.67400
O884        O  0.42551620  0.98609857  0.11318332    -0.51900
C885        C  0.40154516  0.95827911  0.11586928     0.71400
O886        O  0.48401941  0.50772123  0.25327001    -0.60300
O887        O  0.00372925  0.98031032  0.23290996    -0.52300
C888        C  0.49369659  0.99424327  0.25984095     0.73200
O889        O  0.45978837  0.54894972  0.20855903    -0.71700
O890        O  0.45717322  0.54500468  0.15632080    -0.50400
C891        C  0.45318535  0.55410006  0.18714810     0.74600
O892        O  0.42634885  0.90005709  0.17375713    -0.67000
O893        O  0.47218370  0.91992995  0.18874448    -0.54200
C894        C  0.44365924  0.89810649  0.18481671     0.73000
Zr895      Zr  0.43218888  0.93882777  0.15332076     2.77500
O896        O  0.38846874  0.92543633  0.19472149    -0.97800
O897        O  0.40072414  0.88858415  0.11721949    -0.78600
Zr898      Zr  0.47891483  0.52116662  0.21007904     2.70100
O899        O  0.43395391  0.00632870  0.25396473    -0.79800
O900        O  0.01305926  0.57134327  0.24029866    -0.98900
Zr901      Zr  0.00918437  0.97224036  0.17476681     2.21500
Zr902      Zr  0.47743491  0.51591719  0.12259196     2.11100
O903        O  0.44651727  0.99068712  0.17107518    -2.47600
O904        O  0.46258553  0.96858990  0.19715068    -0.79600
O905        O  0.46140440  0.96318052  0.10827556    -0.71800
O906        O  0.02530005  0.52300946  0.18844654    -2.32800
O907        O  0.47716949  0.94070910  0.13409865    -2.29000
O908        O  0.00961402  0.54523403  0.16206827    -0.73600
H909        H  0.03487146  0.52732566  0.08138607     0.78400
H910        H  0.03759063  0.53408088  0.20633665     0.79500
H911        H  0.42829922  0.99003949  0.17742660     0.81700
H912        H  0.47198995  0.91985984  0.12771808     0.79300
H913        H  0.07202119  0.59881285  0.19621534     0.42400
H914        H  0.01304796  0.58604458  0.23279853     0.41300
H915        H  0.41696567  0.98566050  0.24309816     0.41000
H916        H  0.37741847  0.93145651  0.18908431     0.39000
H917        H  0.41526829  0.88851008  0.09812692     0.42100
H918        H  0.48782441  0.91574672  0.03587511     0.36900
H919        H  0.06774418  0.99901196  0.05362382     0.43000
H920        H  0.11630252  0.57372207  0.11440627     0.39400
H921        H  0.37462984  0.90218648  0.19005730     0.44300
H922        H  0.98545469  0.91488040  0.03343042     0.43000
H923        H  0.09724098  0.53827867  0.09707165     0.43200
H924        H  0.52137146  0.56991445  0.25655580     0.43500
C925        C  0.12384773  0.75961321  0.05788826     0.01300
C926        C  0.13724787  0.74327270  0.04566081     0.04100
C927        C  0.12360804  0.71528101  0.05515578    -0.11900
C928        C  0.09508573  0.70183377  0.07434830     0.23400
C929        C  0.07967898  0.71573808  0.08324332    -0.12500
C930        C  0.09418240  0.74495244  0.07587926     0.04800
C931        C  0.08082445  0.67228493  0.08402421     0.27200
C932        C  0.06510708  0.64361162  0.06180993    -0.13200
C933        C  0.05344993  0.61564598  0.06991393     0.05300
C934        C  0.05700216  0.61626902  0.10059063    -0.09200
C935        C  0.07255119  0.64509575  0.12296074     0.06200
C936        C  0.08427882  0.67303061  0.11470185    -0.13500
Br937      Br  0.03859486  0.69447738  0.10579990    -0.05600
Br938      Br  0.18115192  0.75522288  0.51183259     0.00000
Br939      Br  0.03466686  0.57702199  0.03796485     0.00500
Br940      Br  0.10491604  0.71238517  0.14546714    -0.03900
Br941      Br  0.07286974  0.76421998  0.09231780     0.00600
Br942      Br  0.14403302  0.69525405  0.04225176    -0.03200
Br943      Br  0.05999647  0.64308637  0.02015090    -0.04100
Br944      Br  0.07702829  0.64660550  0.16543031    -0.00100
C945        C  0.22242172  0.86358035  0.06696879     0.01300
C946        C  0.24611693  0.88746760  0.04965257     0.04100
C947        C  0.27691033  0.90514245  0.05567530    -0.10700
C948        C  0.28394439  0.89864571  0.07852464     0.23400
C949        C  0.26036952  0.87518152  0.09601885    -0.12500
C950        C  0.22960936  0.85856618  0.09121691     0.04800
C951        C  0.31602263  0.91692443  0.08516262     0.27200
C952        C  0.33423430  0.90661466  0.06723297    -0.13200
C953        C  0.36326961  0.92155781  0.07635946     0.05300
C954        C  0.37373390  0.94636859  0.10359835    -0.09200
C955        C  0.35613427  0.95751204  0.12075322     0.06200
C956        C  0.32725391  0.94286075  0.11141690    -0.13500
Br957      Br  0.27032528  0.86545699  0.12632377    -0.05600
Br958      Br  0.24577002  0.88092300  0.50220116     0.00000
Br959      Br  0.38876165  0.90796058  0.05213360     0.00500
Br960      Br  0.30235452  0.95718182  0.13549713    -0.03900
Br961      Br  0.19746184  0.83130159  0.12036095     0.00600
Br962      Br  0.31945056  0.92635869  0.51621256    -0.03200
Br963      Br  0.31857579  0.87094490  0.03149116    -0.04100
Br964      Br  0.37067652  0.99132398  0.15825131    -0.00100
C965        C  0.04983504  0.91890382  0.09971716     0.01300
C966        C  0.03576831  0.89089685  0.10974591     0.04100
C967        C  0.05056134  0.87637305  0.10116157    -0.11900
C968        C  0.07924737  0.88954787  0.08217492     0.23400
C969        C  0.09267530  0.91656266  0.07074345    -0.12500
C970        C  0.07789512  0.93111818  0.07922421     0.04800
C971        C  0.09618620  0.87607339  0.07578435     0.27200
C972        C  0.11517177  0.88577346  0.09859672    -0.13200
C973        C  0.13100689  0.87279682  0.09312316     0.05300
C974        C  0.12918811  0.85135355  0.06390202    -0.09200
C975        C  0.11028571  0.84176324  0.04099873     0.06200
C976        C  0.09343634  0.85380822  0.04716808    -0.13500
Br977      Br  0.13193669  0.93406121  0.04441412    -0.05600
Br978      Br  0.99531997  0.87112066  0.13339827     0.00000
Br979      Br  0.15293733  0.88254320  0.12698949     0.00500
Br980      Br  0.06645869  0.83976839  0.01662967    -0.03900
Br981      Br  0.09692897  0.96836566  0.06352828     0.00600
Br982      Br  0.03180651  0.83855966  0.11562197    -0.03200
Br983      Br  0.11936517  0.91690200  0.13737713    -0.04100
Br984      Br  0.10795787  0.81264687  0.00089322    -0.00100
C985        C  0.04047970  0.61211577  0.35321525     0.01300
C986        C  0.06879838  0.62729707  0.33369984     0.04100
C987        C  0.08152039  0.65624455  0.32707455    -0.11900
C988        C  0.06496715  0.66914394  0.33791989     0.23400
C989        C  0.03565753  0.65295635  0.35550817    -0.12500
C990        C  0.02361465  0.62469676  0.36353032     0.04800
C991        C  0.07963682  0.70057603  0.33217077     0.27200
C992        C  0.09632730  0.72751835  0.35602372    -0.13200
C993        C  0.11527711  0.75746534  0.34862579     0.05300
C994        C  0.11802609  0.76053363  0.31714683    -0.09200
C995        C  0.10037301  0.73368348  0.29364841     0.06200
C996        C  0.08052268  0.70379050  0.30148599    -0.13500
Br997      Br  0.01268931  0.67021416  0.36964829    -0.05600
Br998      Br  0.08944874  0.60762051  0.31449506     0.00000
Br999      Br  0.13802535  0.79428559  0.38153240     0.00500
Br1000     Br  0.05472591  0.66706133  0.27029095    -0.03900
Br1001     Br  0.98491736  0.60429382  0.39013762     0.00600
Br1002     Br  0.12254475  0.67922782  0.30477618    -0.03200
Br1003     Br  0.09398816  0.72317605  0.39851793    -0.04100
Br1004     Br  0.10532740  0.73748778  0.25006589    -0.00100
C1005       C  0.22385895  0.85479749  0.30596998     0.01300
C1006       C  0.23896541  0.84117479  0.28673315     0.04100
C1007       C  0.26928382  0.85517345  0.29132337    -0.11900
C1008       C  0.28535640  0.88402879  0.31332894     0.23400
C1009       C  0.27121373  0.89898774  0.33058696    -0.12500
C1010       C  0.24019007  0.88392631  0.32787561     0.04800
C1011       C  0.31492645  0.89617444  0.32261604     0.27200
C1012       C  0.31464372  0.89011028  0.35111666    -0.13200
C1013       C  0.34250011  0.90422149  0.36262051     0.05300
C1014       C  0.37099724  0.92323594  0.34464657    -0.09200
C1015       C  0.37090824  0.92712868  0.31467927     0.06200
C1016       C  0.34301247  0.91476369  0.30441460    -0.13500
Br1017     Br  0.29376594  0.93891370  0.36029546    -0.05600
Br1018     Br  0.21831426  0.80339210  0.25396681     0.00000
Br1019     Br  0.34064147  0.89850938  0.40403510     0.00500
Br1020     Br  0.34310941  0.92426270  0.26631543    -0.03900
Br1021     Br  0.21963803  0.90172106  0.35739307     0.00600
Br1022     Br  0.28778944  0.83347733  0.26975969    -0.03200
Br1023     Br  0.27560881  0.86311709  0.37494730    -0.04100
Br1024     Br  0.40851348  0.94699247  0.28627801    -0.00100
C1025       C  0.13757538  0.85636150  0.30934062     0.01300
C1026       C  0.14916070  0.87619301  0.28791331     0.04100
C1027       C  0.13887822  0.89457284  0.29307716    -0.11900
C1028       C  0.11686567  0.89287707  0.31934774     0.23400
C1029       C  0.10523421  0.87311265  0.34066452    -0.12500
C1030       C  0.11636648  0.85576051  0.33638336     0.04800
C1031       C  0.10512195  0.91121742  0.32454327     0.27200
C1032       C  0.11838845  0.94066014  0.34600000    -0.13200
C1033       C  0.10423035  0.95582586  0.35468747     0.05300
C1034       C  0.07622467  0.94095807  0.34274790    -0.09200
C1035       C  0.06364499  0.91192476  0.32027641     0.06200
C1036       C  0.07859227  0.89753826  0.31061385    -0.13500
Br1037     Br  0.07373828  0.86964277  0.37566185    -0.05600
Br1038     Br  0.17896172  0.87829518  0.25141554     0.00000
Br1039     Br  0.12335774  0.99695285  0.38274487     0.00500
Br1040     Br  0.06221873  0.85832089  0.27923549    -0.03900
Br1041     Br  0.10506723  0.83429846  0.36987109     0.00600
Br1042     Br  0.15440833  0.92178724  0.26409342    -0.03200
Br1043     Br  0.15530465  0.95950879  0.36427793    -0.04100
Br1044     Br  0.02439847  0.88978687  0.30501249    -0.00100
C1045       C  0.35812372  0.63488060  0.23305826     0.01300
C1046       C  0.37774736  0.64755750  0.25663651     0.04100
C1047       C  0.39428436  0.63582419  0.25370327    -0.11900
C1048       C  0.39170798  0.61221219  0.22682765     0.23400
C1049       C  0.37131264  0.59882737  0.20403081    -0.12500
C1050       C  0.35502560  0.61057206  0.20666238     0.04800
C1051       C  0.41064210  0.60130717  0.22135007     0.27200
C1052       C  0.43712040  0.61282103  0.19881145    -0.13200
C1053       C  0.45146524  0.59770963  0.18779045     0.05300
C1054       C  0.43917093  0.57099303  0.19934864    -0.09200
C1055       C  0.41321211  0.56035493  0.22294133     0.06200
C1056       C  0.39903284  0.57554762  0.23385964    -0.13500
Br1057     Br  0.36567920  0.56411085  0.16913114    -0.05600
Br1058     Br  0.38190088  0.68071512  0.29288909     0.00000
Br1059     Br  0.48807772  0.61407689  0.15734580     0.00500
Br1060     Br  0.36205575  0.55964349  0.26399944    -0.03900
Br1061     Br  0.33099443  0.59506164  0.17206770     0.00600
Br1062     Br  0.41948017  0.65101640  0.28678254    -0.03200
Br1063     Br  0.45239046  0.64818532  0.18174955    -0.04100
Br1064     Br  0.39484880  0.52335258  0.23868460    -0.00100
C1065       C  0.43027645  0.86825506  0.19264292     0.01300
C1066       C  0.43297885  0.86792997  0.22321853     0.04100
C1067       C  0.42209207  0.83975322  0.22997567    -0.11900
C1068       C  0.40799720  0.81185552  0.20638501     0.23400
C1069       C  0.40545649  0.81205760  0.17573176    -0.12500
C1070       C  0.41654101  0.84026403  0.16884369     0.04800
C1071       C  0.39349853  0.78184059  0.21467884     0.27200
C1072       C  0.40681618  0.76569042  0.20131751    -0.13200
C1073       C  0.39073406  0.73521595  0.20597299     0.05300
C1074       C  0.36269766  0.72224365  0.22657658    -0.09200
C1075       C  0.35110738  0.73992928  0.24238247     0.06200
C1076       C  0.36557754  0.76893620  0.23502315    -0.13500
Br1077     Br  0.38635928  0.77353831  0.14334838    -0.05600
Br1078     Br  0.44936962  0.90545926  0.25677026     0.00000
Br1079     Br  0.40621656  0.71094383  0.18162588     0.00500
Br1080     Br  0.34635748  0.79032020  0.25168130    -0.03900
Br1081     Br  0.41371975  0.84032687  0.12633969     0.00600
Br1082     Br  0.42545570  0.83892977  0.27186860    -0.03200
Br1083     Br  0.44655461  0.78508695  0.17575884    -0.04100
Br1084     Br  0.31629304  0.72539945  0.27526799    -0.00100
C1085       C  0.26484040  0.61744194  0.22150534     0.01300
C1086       C  0.24260890  0.59857321  0.24409294     0.04100
C1087       C  0.21130345  0.57878491  0.23946936    -0.11900
C1088       C  0.20237432  0.57816874  0.21253827     0.23400
C1089       C  0.22456243  0.59550860  0.18899170    -0.12500
C1090       C  0.25585390  0.61521859  0.19343243     0.04800
C1091       C  0.16985468  0.56282782  0.21061742     0.27200
C1092       C  0.15191590  0.53219499  0.19244079    -0.13200
C1093       C  0.12349244  0.52038649  0.18430032     0.05300
C1094       C  0.11312277  0.53942755  0.19432178    -0.09200
C1095       C  0.13057367  0.56960505  0.21425783     0.06200
C1096       C  0.15876036  0.58107317  0.22267856    -0.13500
Br1097     Br  0.21165643  0.59304524  0.15132162    -0.05600
Br1098     Br  0.25451938  0.60144136  0.28267923     0.00000
Br1099     Br  0.09791554  0.97766729  0.16468545     0.00500
Br1100     Br  0.18356957  0.62267681  0.24902400    -0.03900
Br1101     Br  0.28606643  0.63872757  0.16074806     0.00600
Br1102     Br  0.18043166  0.55346551  0.27048848    -0.03200
Br1103     Br  0.16761233  0.50754031  0.17684745    -0.04100
Br1104     Br  0.11673573  0.59587298  0.22955530    -0.00100
C1105       C  0.36361459  0.63289183  0.47761667     0.01300
C1106       C  0.35427589  0.61598447  0.50128231     0.04100
C1107       C  0.36669900  0.60007993  0.49838972    -0.11900
C1108       C  0.38801065  0.60081639  0.47173691     0.23400
C1109       C  0.39819356  0.61857659  0.44879398    -0.12500
C1110       C  0.38596728  0.63452401  0.45154015     0.04800
C1111       C  0.39843479  0.58135286  0.46627597     0.27200
C1112       C  0.42584031  0.59425351  0.47788852    -0.13200
C1113       C  0.43820298  0.57738365  0.46856866     0.05300
C1114       C  0.42333450  0.54779973  0.44720001    -0.09200
C1115       C  0.39529356  0.53445378  0.43640743     0.06200
C1116       C  0.38263344  0.55114203  0.44636074    -0.13500
Br1117     Br  0.42822701  0.62015120  0.41289728    -0.05600
Br1118     Br  0.37992870  0.66266792  0.03414774     0.00000
Br1119     Br  0.47728356  0.59660550  0.48246773     0.00500
Br1120     Br  0.34255917  0.53538721  0.99558882    -0.03900
Br1121     Br  0.39836530  0.65626070  0.41777905     0.00600
Br1122     Br  0.35457079  0.57698255  0.53049072    -0.03200
Br1123     Br  0.44745181  0.63593125  0.50474148    -0.04100
Br1124     Br  0.37554996  0.49883799  0.97205433    -0.00100
C1125       C  0.37623782  0.72409758  0.46820269     0.01300
C1126       C  0.37246956  0.72921229  0.44136254     0.04100
C1127       C  0.38992893  0.75975979  0.43642386    -0.11900
C1128       C  0.41210031  0.78498739  0.45740722     0.23400
C1129       C  0.41702490  0.77992577  0.48329526    -0.12500
C1130       C  0.39925169  0.74935246  0.48858807     0.04800
C1131       C  0.42865283  0.81697162  0.45308031     0.27200
C1132       C  0.45545070  0.82973544  0.43112817    -0.13200
C1133       C  0.46836544  0.85820720  0.42328539     0.05300
C1134       C  0.45378605  0.87314975  0.43668563    -0.09200
C1135       C  0.42728893  0.86054234  0.45913018     0.06200
C1136       C  0.41517712  0.83283317  0.46794912    -0.13500
Br1137     Br  0.44691872  0.81521417  0.51233038    -0.05600
Br1138     Br  0.34514027  0.69438306  0.40984069     0.00000
Br1139     Br  0.50429104  0.87511729  0.39216695     0.00500
Br1140     Br  0.35804666  0.79558428  0.97666636    -0.03900
Br1141     Br  0.36439451  0.73937653  0.04520067     0.00600
Br1142     Br  0.38264107  0.76738638  0.40172287    -0.03200
Br1143     Br  0.47312143  0.80712552  0.41042773    -0.04100
Br1144     Br  0.38813535  0.86540659  0.96618657    -0.00100
C1145       C  0.27264578  0.62760825  0.47992216     0.01300
C1146       C  0.25805857  0.64154279  0.49977038     0.04100
C1147       C  0.22843113  0.62928697  0.49460258    -0.11900
C1148       C  0.21212312  0.60129292  0.47150476     0.23400
C1149       C  0.22536041  0.58530027  0.45442765    -0.12500
C1150       C  0.25580661  0.59871360  0.45804650     0.04800
C1151       C  0.18202074  0.58941107  0.46336492     0.27200
C1152       C  0.15447188  0.57174892  0.48288689    -0.13200
C1153       C  0.12591943  0.55871293  0.47359464     0.05300
C1154       C  0.12458097  0.56161538  0.44368565    -0.09200
C1155       C  0.15227480  0.57900663  0.42396630     0.06200
C1156       C  0.18084429  0.59362289  0.43429708    -0.13500
Br1157     Br  0.20207451  0.54555222  0.42490676    -0.05600
Br1158     Br  0.27831323  0.67655367  0.53518733     0.00000
Br1159     Br  0.08010100  0.54156629  0.01268242     0.00500
Br1160     Br  0.21865383  0.61858818  0.40796154    -0.03900
Br1161     Br  0.27452519  0.57806626  0.43161359     0.00600
Br1162     Br  0.21133335  0.65209596  0.51770394    -0.03200
Br1163     Br  0.14725853  0.57726985  0.03961271    -0.04100
Br1164     Br  0.15149215  0.58042124  0.38122945    -0.00100
C1165       C  0.34975882  0.64834236  0.47944792     0.80200
N1166       N  0.31870492  0.63168126  0.48101947    -0.78100
C1167       C  0.30621689  0.64540869  0.47964915     0.82600
N1168       N  0.32501768  0.67567933  0.47622458    -0.78100
C1169       C  0.35599341  0.69233942  0.47468189     0.82700
N1170       N  0.36824356  0.67861612  0.47635955    -0.79800
C1171       C  0.35191045  0.64593206  0.73434062     0.80200
N1172       N  0.32184434  0.62729092  0.72935031    -0.78100
C1173       C  0.30841007  0.63990246  0.72771354     0.82600
N1174       N  0.32529476  0.67136998  0.73075707    -0.78100
C1175       C  0.35537745  0.69042276  0.73627304     0.82700
N1176       N  0.36859027  0.67749329  0.73796851    -0.79800
C1177       C  0.14595563  0.83081095  0.80181073     0.80200
N1178       N  0.12944992  0.80030403  0.80338613    -0.78100
C1179       C  0.14386963  0.78702464  0.79895341     0.82600
N1180       N  0.17509833  0.80489249  0.79389651    -0.78100
C1181       C  0.19217379  0.83564656  0.79258086     0.82700
N1182       N  0.17722996  0.84839803  0.79649107    -0.79800
C1183       C  0.15596343  0.83563782  0.55215351     0.80200
N1184       N  0.18661980  0.85425409  0.55462013    -0.78100
C1185       C  0.20026515  0.84187415  0.55641228     0.82600
N1186       N  0.18299805  0.81083657  0.55623940    -0.78100
C1187       C  0.15231768  0.79189078  0.55369048     0.82700
N1188       N  0.13893315  0.80450374  0.55162036    -0.79800
O1189       O  0.04610751  0.95081914  0.84512745    -0.75300
O1190       O  0.04210088  0.95255907  0.89871982    -0.54200
C1191       C  0.05021758  0.94541786  0.86851111     0.78400
O1192       O  0.04914169  0.58391131  0.87589559    -0.59900
O1193       O  0.00467347  0.55563707  0.85266590    -0.53000
C1194       C  0.03137538  0.58089196  0.85988495     0.70400
O1195       O  0.08588906  0.55856924  0.92641208    -0.74500
O1196       O  0.06648672  0.01469189  0.94417661    -0.55100
C1197       C  0.08783593  0.54245020  0.93902159     0.76400
O1198       O  0.01651140  0.98032331  0.79041513    -0.59600
O1199       O  0.48574540  0.49635414  0.80600599    -0.52800
C1200       C  0.50144184  0.98962388  0.78882695     0.73000
Zr1201     Zr  0.02276611  0.97303344  0.83816969     2.54700
O1202       O  0.07586990  0.00642303  0.81502342    -0.80200
O1203       O  0.50919226  0.92844282  0.79748757    -0.93600
Zr1204     Zr  0.04845473  0.55072178  0.90043024     2.64700
O1205       O  0.09819547  0.57907742  0.86854327    -0.98600
O1206       O  0.06150617  0.59617106  0.94436400    -0.80600
O1207       O  0.04634658  0.00577565  0.88650473    -0.84000
O1208       O  0.02542657  0.51852127  0.85180336    -2.18700
O1209       O  0.40283379  0.92263054  0.86575635    -0.67400
O1210       O  0.42367195  0.96786869  0.85064250    -0.51900
C1211       C  0.40147514  0.93918202  0.85289163     0.71400
O1212       O  0.47709624  0.50262355  0.00171351    -0.60300
O1213       O  0.00403534  0.98210334  0.98555520    -0.52300
C1214       C  0.49851159  0.98959984  0.50589108     0.73200
O1215       O  0.44144905  0.52716108  0.94499923    -0.71700
O1216       O  0.44294701  0.52181533  0.89109980    -0.50400
C1217       C  0.43484354  0.52954461  0.92099061     0.74600
O1218       O  0.44059750  0.89693523  0.91706071    -0.67000
O1219       O  0.48361851  0.92525705  0.94268734    -0.54200
C1220       C  0.45749650  0.89975743  0.93427187     0.73000
Zr1221     Zr  0.43976217  0.92998577  0.89359100     2.77500
O1222       O  0.39312816  0.90865605  0.93125256    -0.97800
O1223       O  0.41809982  0.87972918  0.85545756    -0.78600
Zr1224     Zr  0.46786663  0.50877595  0.95462488     2.70100
O1225       O  0.41627010  0.97905760  0.98727965    -0.79800
O1226       O  0.98504246  0.55549365  0.99326449    -0.98900
Zr1227     Zr  0.01483539  0.97584839  0.92729324     2.21500
Zr1228     Zr  0.47401643  0.50322649  0.86439152     2.11100
O1229       O  0.44334483  0.97669068  0.91127904    -2.47600
O1230       O  0.46373758  0.96206133  0.94198325    -0.79600
O1231       O  0.47072634  0.95795217  0.85117336    -0.71800
O1232       O  0.01852359  0.52213103  0.94229974    -2.32800
O1233       O  0.49043664  0.94357664  0.88228770    -2.29000
O1234       O  0.99776504  0.53667142  0.91119252    -0.73600
H1235       H  0.03688704  0.53038128  0.83484546     0.78400
H1236       H  0.02861652  0.53431870  0.96172400     0.79500
H1237       H  0.42305768  0.97168564  0.91462184     0.81700
H1238       H  0.48918556  0.92474838  0.87642202     0.79300
H1239       H  0.07583485  0.61445852  0.93381733     0.42400
H1240       H  0.99734053  0.57230203  0.98075028     0.41300
H1241       H  0.41785734  0.97079995  0.00255530     0.41000
H1242       H  0.38934895  0.92479972  0.93883979     0.39000
H1243       H  0.39811686  0.86493257  0.86686027     0.42100
H1244       H  0.49490954  0.91012459  0.80797047     0.36900
H1245       H  0.07701579  0.99378626  0.79342669     0.43000
H1246       H  0.09334508  0.57496502  0.84672396     0.39400
H1247       H  0.37642128  0.89091351  0.91764096     0.44300
H1248       H  0.02814200  0.92861235  0.78667139     0.43000
H1249       H  0.10713573  0.60156650  0.87755053     0.43200
H1250       H  0.46602683  0.54779790  0.51179956     0.43500
O1251       O  0.03976983  0.93793453  0.58383430    -0.75300
O1252       O  0.03932780  0.93873351  0.63607069    -0.54200
C1253       C  0.04518821  0.93161961  0.60526826     0.78400
O1254       O  0.07102697  0.58349380  0.61833010    -0.59900
O1255       O  0.02543035  0.56385945  0.60289248    -0.53000
C1256       C  0.05398046  0.58555494  0.60680479     0.70400
O1257       O  0.09797273  0.54210436  0.66242431    -0.74500
O1258       O  0.07146109  0.99819783  0.68332671    -0.55100
C1259       C  0.09571646  0.52384282  0.67632656     0.76400
O1260       O  0.01006363  0.97369273  0.53695017    -0.59600
O1261       O  0.49142808  0.50246388  0.55834372    -0.52800
C1262       C  0.49951267  0.98914722  0.53867376     0.73000
Zr1263     Zr  0.01757487  0.96250805  0.58097216     2.54700
O1264       O  0.06035256  0.97353972  0.53886866    -0.80200
O1265       O  0.48679409  0.91213898  0.55019731    -0.93600
Zr1266     Zr  0.06540793  0.54446229  0.63870886     2.64700
O1267       O  0.10990013  0.55880207  0.59825744    -0.98600
O1268       O  0.09643097  0.59495772  0.67455822    -0.80600
O1269       O  0.04964361  0.99269178  0.62380267    -0.84000
O1270       O  0.03478396  0.51505058  0.59489194    -2.18700
O1271       O  0.40907113  0.93649135  0.62436855    -0.67400
O1272       O  0.43561717  0.98203915  0.60686802    -0.51900
C1273       C  0.41113533  0.95479179  0.61079165     0.71400
O1274       O  0.49356764  0.50293027  0.74730558    -0.60300
O1275       O  0.01458506  0.97673937  0.72808555    -0.52300
C1276       C  0.50318324  0.99052515  0.75532246     0.73200
O1277       O  0.46805565  0.54283026  0.70268189    -0.71700
O1278       O  0.46679615  0.53961116  0.65018867    -0.50400
C1279       C  0.46180585  0.54804146  0.68096975     0.74600
O1280       O  0.43571371  0.89715904  0.67013405    -0.67000
O1281       O  0.48143018  0.91687447  0.68526336    -0.54200
C1282       C  0.45260537  0.89527802  0.68205262     0.73000
Zr1283     Zr  0.44234930  0.93576504  0.64847771     2.77500
O1284       O  0.39947563  0.92230480  0.69096047    -0.97800
O1285       O  0.41082254  0.88489829  0.61336037    -0.78600
Zr1286     Zr  0.48898637  0.51652233  0.70398043     2.70100
O1287       O  0.44598789  0.00606207  0.75047785    -0.79800
O1288       O  0.02233058  0.57055845  0.73404378    -0.98900
Zr1289     Zr  0.01968306  0.96828763  0.66924854     2.21500
Zr1290     Zr  0.48711438  0.51044528  0.61675701     2.11100
O1291       O  0.45663143  0.98759197  0.66608769    -2.47600
O1292       O  0.47297011  0.96575455  0.69218920    -0.79600
O1293       O  0.47135404  0.95977377  0.60311791    -0.71800
O1294       O  0.03607760  0.52068919  0.68422060    -2.32800
O1295       O  0.48757842  0.93798488  0.62918555    -2.29000
O1296       O  0.02079246  0.54342812  0.65753423    -0.73600
H1297       H  0.04590198  0.52551778  0.57691747     0.78400
H1298       H  0.04835395  0.53169779  0.70206996     0.79500
H1299       H  0.43828327  0.98698398  0.67246024     0.81700
H1300       H  0.48224662  0.91705404  0.62301968     0.79300
H1301       H  0.08159355  0.59516967  0.69320626     0.42400
H1302       H  0.02352300  0.58442002  0.72366571     0.41300
H1303       H  0.42819655  0.98567462  0.74038619     0.41000
H1304       H  0.39764599  0.93970790  0.69640090     0.39000
H1305       H  0.42544940  0.88421623  0.59471484     0.42100
H1306       H  0.49853378  0.91459985  0.52846285     0.36900
H1307       H  0.07783584  0.99506722  0.54754024     0.43000
H1308       H  0.11253563  0.54214401  0.59435344     0.39400
H1309       H  0.38103447  0.90413141  0.67984979     0.44300
H1310       H  0.99213526  0.91163228  0.52661714     0.43000
H1311       H  0.10264025  0.55505978  0.57813436     0.43200
H1312       H  0.50625894  0.57101928  0.75426835     0.43500
C1313       C  0.13342687  0.75889842  0.55745099     0.01300
C1314       C  0.14506501  0.74096793  0.54323611     0.04100
C1315       C  0.13011384  0.71206482  0.55152435    -0.11900
C1316       C  0.10229664  0.69979539  0.57217626     0.23400
C1317       C  0.08882101  0.71577184  0.58341785    -0.12500
C1318       C  0.10499820  0.74595264  0.57761915     0.04800
C1319       C  0.08764450  0.67023848  0.58222941     0.27200
C1320       C  0.07365949  0.64171185  0.55950764    -0.13200
C1321       C  0.06461707  0.61445717  0.56683804     0.05300
C1322       C  0.06759998  0.61514554  0.59782089    -0.09200
C1323       C  0.08020249  0.64347509  0.62124412     0.06200
C1324       C  0.08980392  0.67091441  0.61358445    -0.13500
Br1325     Br  0.04809601  0.69601445  0.60690752    -0.05600
Br1326     Br  0.17293578  0.75748534  0.01380652     0.00000
Br1327     Br  0.05051980  0.57695435  0.53337564     0.00500
Br1328     Br  0.10435113  0.70894078  0.64656686    -0.03900
Br1329     Br  0.08913576  0.77000734  0.60086906     0.00600
Br1330     Br  0.14806573  0.68940973  0.53497545    -0.03200
Br1331     Br  0.06611782  0.64015744  0.51875386    -0.04100
Br1332     Br  0.08365720  0.64474242  0.66410586    -0.00100
C1333       C  0.23277311  0.86267313  0.56262724     0.01300
C1334       C  0.25605123  0.88233338  0.54109454     0.04100
C1335       C  0.28708868  0.90176222  0.54705193    -0.10700
C1336       C  0.29468649  0.90209700  0.57491039     0.23400
C1337       C  0.27143264  0.88306206  0.59677517    -0.12500
C1338       C  0.24058369  0.86306704  0.59048063     0.04800
C1339       C  0.32707785  0.91881699  0.57947746     0.27200
C1340       C  0.34052002  0.90277767  0.56606627    -0.13200
C1341       C  0.36815874  0.91468533  0.57622900     0.05300
C1342       C  0.38316881  0.94341828  0.59873574    -0.09200
C1343       C  0.37071914  0.96054228  0.61048129     0.06200
C1344       C  0.34244204  0.94803009  0.60114689    -0.13500
Br1345     Br  0.28220282  0.88320469  0.63462093    -0.05600
Br1346     Br  0.23688970  0.89611854  0.01764706     0.00000
Br1347     Br  0.38477854  0.89096657  0.56004319     0.00500
Br1348     Br  0.32370235  0.96975086  0.61946052    -0.03900
Br1349     Br  0.20936176  0.83622635  0.62030248     0.00600
Br1350     Br  0.30970686  0.93806758  0.03261973    -0.03200
Br1351     Br  0.32001333  0.86355246  0.53495197    -0.04100
Br1352     Br  0.39078997  0.99968643  0.64152599    -0.00100
C1353       C  0.06019657  0.91581809  0.59309652     0.01300
C1354       C  0.04558262  0.88599926  0.59915541     0.04100
C1355       C  0.06003876  0.87098945  0.58669628    -0.11900
C1356       C  0.08953074  0.88626485  0.56939435     0.23400
C1357       C  0.10393383  0.91578618  0.56284627    -0.12500
C1358       C  0.08926495  0.93056083  0.57461654     0.04800
C1359       C  0.10746632  0.87399959  0.56356352     0.27200
C1360       C  0.12563210  0.88414423  0.58749523    -0.13200
C1361       C  0.14280042  0.87281073  0.58292794     0.05300
C1362       C  0.14043916  0.84982487  0.55510814    -0.09200
C1363       C  0.12142585  0.83892104  0.53160740     0.06200
C1364       C  0.10515331  0.85126263  0.53569664    -0.13500
Br1365     Br  0.14445151  0.93658931  0.53919368    -0.05600
Br1366     Br  0.00618428  0.86586366  0.62498712     0.00000
Br1367     Br  0.16792470  0.88768574  0.61609954     0.00500
Br1368     Br  0.07836597  0.83592075  0.50427008    -0.03900
Br1369     Br  0.11054756  0.97244122  0.56817768     0.00600
Br1370     Br  0.04027517  0.83000196  0.59437245    -0.03200
Br1371     Br  0.12463838  0.91147930  0.62794938    -0.04100
Br1372     Br  0.11796826  0.80741552  0.49365195    -0.00100
C1373       C  0.04314093  0.60852418  0.84829973     0.01300
C1374       C  0.05766644  0.61148758  0.81650818     0.04100
C1375       C  0.07212348  0.63942543  0.80636927    -0.11900
C1376       C  0.07094844  0.66389292  0.82776830     0.23400
C1377       C  0.05471738  0.66008117  0.85890112    -0.12500
C1378       C  0.04163090  0.63278832  0.86950404     0.04800
C1379       C  0.08978584  0.69494546  0.81920597     0.27200
C1380       C  0.11767258  0.71928644  0.83283909    -0.13200
C1381       C  0.13549137  0.74928452  0.82601576     0.05300
C1382       C  0.12597069  0.75487855  0.80451277    -0.09200
C1383       C  0.09815785  0.73013074  0.79038384     0.06200
C1384       C  0.07985847  0.70036865  0.79821364    -0.13500
Br1385     Br  0.05184200  0.69306209  0.88746237    -0.05600
Br1386     Br  0.05863664  0.57759373  0.78755407     0.00000
Br1387     Br  0.17151992  0.78283961  0.84865007     0.00500
Br1388     Br  0.04070204  0.66712171  0.78113138    -0.03900
Br1389     Br  0.02289012  0.62919169  0.91348725     0.00600
Br1390     Br  0.09480196  0.64491394  0.76392680    -0.03200
Br1391     Br  0.13098925  0.71156625  0.86182802    -0.04100
Br1392     Br  0.08523013  0.73635709  0.75960656    -0.00100
C1393       C  0.22649559  0.85552027  0.79253739     0.01300
C1394       C  0.24202221  0.84137842  0.77811378     0.04100
C1395       C  0.27143020  0.85586806  0.78626699    -0.11900
C1396       C  0.28672783  0.88565322  0.80695379     0.23400
C1397       C  0.27339314  0.90184185  0.81763771    -0.12500
C1398       C  0.24333565  0.88694705  0.81076701     0.04800
C1399       C  0.31623834  0.89936686  0.81849014     0.27200
C1400       C  0.31605096  0.89737837  0.84952687    -0.13200
C1401       C  0.34383927  0.91080954  0.86094835     0.05300
C1402       C  0.37197509  0.92454876  0.84061652    -0.09200
C1403       C  0.37181634  0.92522313  0.80895349     0.06200
C1404       C  0.34424981  0.91359518  0.79835217    -0.13500
Br1405     Br  0.29635001  0.94427613  0.84277098    -0.05600
Br1406     Br  0.22383941  0.80253466  0.74607742     0.00000
Br1407     Br  0.34303811  0.91177881  0.90524497     0.00500
Br1408     Br  0.34454988  0.91694440  0.75618274    -0.03900
Br1409     Br  0.22608441  0.91023785  0.82791222     0.00600
Br1410     Br  0.29024803  0.83416478  0.77049099    -0.03200
Br1411     Br  0.27739901  0.87543577  0.87615716    -0.04100
Br1412     Br  0.40885553  0.93996400  0.77921029    -0.00100
C1413       C  0.13033601  0.84594241  0.81134648     0.01300
C1414       C  0.12897683  0.85752403  0.78871804     0.04100
C1415       C  0.11528379  0.87328107  0.79853147    -0.11900
C1416       C  0.10187555  0.87639023  0.83066682     0.23400
C1417       C  0.10213031  0.86368374  0.85300309    -0.12500
C1418       C  0.11692576  0.84905684  0.84355147     0.04800
C1419       C  0.08845262  0.89397906  0.84112041     0.27200
C1420       C  0.10699611  0.92649707  0.85415536    -0.13200
C1421       C  0.09455675  0.94347505  0.86350364     0.05300
C1422       C  0.06362294  0.92800410  0.85944258    -0.09200
C1423       C  0.04531674  0.89555165  0.84570681     0.06200
C1424       C  0.05758734  0.87850072  0.83697747    -0.13500
Br1425     Br  0.08236850  0.86658785  0.89652843    -0.05600
Br1426     Br  0.14494983  0.85086667  0.74412314     0.00000
Br1427     Br  0.12018314  0.98800110  0.88089330     0.00500
Br1428     Br  0.03224668  0.83392887  0.81924703    -0.03900
Br1429     Br  0.12033172  0.83487441  0.87520972     0.00600
Br1430     Br  0.11526498  0.89117815  0.76822969    -0.03200
Br1431     Br  0.14960741  0.94768099  0.85866199    -0.04100
Br1432     Br  0.00320568  0.87426972  0.83908492    -0.00100
C1433       C  0.36743184  0.63145384  0.72981856     0.01300
C1434       C  0.38319720  0.63799995  0.75443658     0.04100
C1435       C  0.39843336  0.62432635  0.74911592    -0.11900
C1436       C  0.39793295  0.60429977  0.71925516     0.23400
C1437       C  0.38217036  0.59773063  0.69472572    -0.12500
C1438       C  0.36712729  0.61144311  0.69986306     0.04800
C1439       C  0.41550040  0.59148729  0.71251289     0.27200
C1440       C  0.44498185  0.60669804  0.69524409    -0.13200
C1441       C  0.45992524  0.59220313  0.68409294     0.05300
C1442       C  0.44647319  0.56364376  0.69252582    -0.09200
C1443       C  0.41769515  0.54948740  0.71174378     0.06200
C1444       C  0.40184128  0.56294986  0.72084642    -0.13500
Br1445     Br  0.38215288  0.57069138  0.65358394    -0.05600
Br1446     Br  0.38381514  0.66541101  0.79536533     0.00000
Br1447     Br  0.49843668  0.61152502  0.65693032     0.00500
Br1448     Br  0.36088245  0.54185365  0.74356703    -0.03900
Br1449     Br  0.34826380  0.60460016  0.66465219     0.00600
Br1450     Br  0.42069010  0.63341976  0.78215384    -0.03200
Br1451     Br  0.46455707  0.64737039  0.68676486    -0.04100
Br1452     Br  0.39858483  0.51041737  0.72374531    -0.00100
C1453       C  0.43787376  0.86622511  0.69311530     0.01300
C1454       C  0.44065660  0.86820481  0.72477034     0.04100
C1455       C  0.42897290  0.84108547  0.73477057    -0.11900
C1456       C  0.41333414  0.81167810  0.71361899     0.23400
C1457       C  0.40931875  0.80930763  0.68245035    -0.12500
C1458       C  0.42157208  0.83652674  0.67213897     0.04800
C1459       C  0.40096471  0.78307108  0.72404721     0.27200
C1460       C  0.41746572  0.77022448  0.71416422    -0.13200
C1461       C  0.40362425  0.74039633  0.71945677     0.05300
C1462       C  0.37383242  0.72437676  0.73673425    -0.09200
C1463       C  0.35976461  0.73990989  0.75091800     0.06200
C1464       C  0.37237043  0.76824723  0.74297544    -0.13500
Br1465     Br  0.38720975  0.76861512  0.65386447    -0.05600
Br1466     Br  0.45809158  0.90759832  0.75550307     0.00000
Br1467     Br  0.42532918  0.72166958  0.70079506     0.00500
Br1468     Br  0.34965936  0.78582363  0.75636895    -0.03900
Br1469     Br  0.41641002  0.83276409  0.62904535     0.00600
Br1470     Br  0.43455246  0.84403218  0.77732587    -0.03200
Br1471     Br  0.45868701  0.79338332  0.69233613    -0.04100
Br1472     Br  0.32418053  0.72343314  0.78268712    -0.00100
C1473       C  0.27583997  0.61921954  0.72186014     0.01300
C1474       C  0.25315805  0.60000287  0.74392991     0.04100
C1475       C  0.22196829  0.58003692  0.73860210    -0.11900
C1476       C  0.21342675  0.57919916  0.71115209     0.23400
C1477       C  0.23607539  0.59832043  0.68898728    -0.12500
C1478       C  0.26730193  0.61815396  0.69416886     0.04800
C1479       C  0.18061748  0.56157186  0.70734535     0.27200
C1480       C  0.16500745  0.53172482  0.68673040    -0.13200
C1481       C  0.13646217  0.51858668  0.67745947     0.05300
C1482       C  0.12365057  0.53536436  0.68876621    -0.09200
C1483       C  0.13827787  0.56404088  0.71143267     0.06200
C1484       C  0.16648474  0.57688661  0.72102816    -0.13500
Br1485     Br  0.22395870  0.59846509  0.65241849    -0.05600
Br1486     Br  0.26459287  0.60247363  0.78263439     0.00000
Br1487     Br  0.11563758  0.97937947  0.65107140     0.00500
Br1488     Br  0.18658664  0.61618910  0.75207591    -0.03900
Br1489     Br  0.29821703  0.64306664  0.66280564     0.00600
Br1490     Br  0.19074587  0.55531940  0.76987823    -0.03200
Br1491     Br  0.18322696  0.50946590  0.67054723    -0.04100
Br1492     Br  0.12011410  0.58622204  0.72907158    -0.00100
C1493       C  0.34977877  0.62407521  0.97555322     0.01300
C1494       C  0.36964921  0.63047787  0.99509526     0.04100
C1495       C  0.38194750  0.61342069  0.98601057    -0.11900
C1496       C  0.37299578  0.58880848  0.95831617     0.23400
C1497       C  0.35202536  0.58161428  0.93959788    -0.12500
C1498       C  0.34154397  0.60013873  0.94739329     0.04800
C1499       C  0.38734662  0.57207156  0.94746851     0.27200
C1500       C  0.41083781  0.57971150  0.92146767    -0.13200
C1501       C  0.42516689  0.56456603  0.91143228     0.05300
C1502       C  0.41701377  0.54253861  0.92842882    -0.09200
C1503       C  0.39194064  0.53348928  0.95309951     0.06200
C1504       C  0.37721757  0.54824254  0.96253872    -0.13500
Br1505     Br  0.33826117  0.54683954  0.90280353    -0.05600
Br1506     Br  0.32488575  0.61483905  0.53784998     0.00000
Br1507     Br  0.45543001  0.57436067  0.87393978     0.00500
Br1508     Br  0.34435786  0.53343580  0.43168223    -0.03900
Br1509     Br  0.31871231  0.59493611  0.91759273     0.00600
Br1510     Br  0.41196464  0.62459705  0.01069158    -0.03200
Br1511     Br  0.42354881  0.61134139  0.89968289    -0.04100
Br1512     Br  0.37446883  0.49373588  0.40765117    -0.00100
C1513       C  0.36918358  0.72147607  0.97510406     0.01300
C1514       C  0.37921011  0.72660316  0.94329516     0.04100
C1515       C  0.39765392  0.75733570  0.93818137    -0.11900
C1516       C  0.40666106  0.78281607  0.96493967     0.23400
C1517       C  0.39857187  0.77769759  0.99662330    -0.12500
C1518       C  0.37898994  0.74691966  0.00175346     0.04800
C1519       C  0.42073133  0.81418439  0.95998690     0.27200
C1520       C  0.45252727  0.83446381  0.95103336    -0.13200
C1521       C  0.46497815  0.86284545  0.94308169     0.05300
C1522       C  0.44561526  0.87142053  0.94514247    -0.09200
C1523       C  0.41417190  0.85204583  0.95689748     0.06200
C1524       C  0.40166234  0.82319680  0.96344516    -0.13500
Br1525     Br  0.41385816  0.81289252  0.03282368    -0.05600
Br1526     Br  0.36612260  0.69138644  0.90695926     0.00000
Br1527     Br  0.50821746  0.88863518  0.92814724     0.00500
Br1528     Br  0.37922709  0.81552853  0.49919111    -0.03900
Br1529     Br  0.40612507  0.74255743  0.52421047     0.00600
Br1530     Br  0.40937362  0.76449036  0.89472154    -0.03200
Br1531     Br  0.47873226  0.82297184  0.94955788    -0.04100
Br1532     Br  0.40686449  0.88052830  0.47688535    -0.00100
C1533       C  0.26322046  0.63019779  0.99621461     0.01300
C1534       C  0.25142868  0.64817241  0.00707872     0.04100
C1535       C  0.22119530  0.63427867  0.00216868    -0.11900
C1536       C  0.20285325  0.60279652  0.98610888     0.23400
C1537       C  0.21288321  0.58394662  0.97869488    -0.12500
C1538       C  0.24248469  0.59714592  0.98482402     0.04800
C1539       C  0.17358754  0.58957823  0.97525254     0.27200
C1540       C  0.14593199  0.57527511  0.99566606    -0.13200
C1541       C  0.11772976  0.55971640  0.98391698     0.05300
C1542       C  0.11729960  0.55869170  0.95165755    -0.09200
C1543       C  0.14541786  0.57443605  0.93174649     0.06200
C1544       C  0.17342321  0.58954153  0.94348699    -0.13500
Br1545     Br  0.18611848  0.54002978  0.95845900    -0.05600
Br1546     Br  0.27554205  0.69154761  0.02971896     0.00000
Br1547     Br  0.08883764  0.53759041  0.50239076     0.00500
Br1548     Br  0.21178404  0.60955703  0.91583167    -0.03900
Br1549     Br  0.25272848  0.56847002  0.97722709     0.00600
Br1550     Br  0.20475401  0.65825638  0.01654414    -0.03200
Br1551     Br  0.15580113  0.56393377  0.52139094    -0.04100
Br1552     Br  0.14617588  0.57475224  0.88788647    -0.00100
C1553       C  0.84075626  0.14583456  0.98586255     0.80200
N1554       N  0.81023983  0.13235729  0.99459903    -0.78100
C1555       C  0.79816153  0.14744962  0.99640760     0.82600
N1556       N  0.81735450  0.17638306  0.98915754    -0.78100
C1557       C  0.84793477  0.19022263  0.98115900     0.82700
N1558       N  0.85960614  0.17481124  0.97907885    -0.79800
C1559       C  0.84341650  0.14881547  0.23321147     0.80200
N1560       N  0.81278411  0.12895260  0.23078540    -0.78100
C1561       C  0.79816007  0.13941980  0.22687609     0.82600
N1562       N  0.81427339  0.16978284  0.22509030    -0.78100
C1563       C  0.84487627  0.18987638  0.22809384     0.82700
N1564       N  0.85935782  0.17927628  0.23212636    -0.79800
C1565       C  0.65001597  0.33927558  0.30986004     0.80200
N1566       N  0.62995054  0.30902212  0.31357172    -0.78100
C1567       C  0.64045868  0.29355898  0.31529350     0.82600
N1568       N  0.67128636  0.30848665  0.31317222    -0.78100
C1569       C  0.69152540  0.33846504  0.30848370     0.82700
N1570       N  0.68070496  0.35376235  0.30720653    -0.79800
C1571       C  0.64361467  0.33663398  0.06001175     0.80200
N1572       N  0.67438481  0.35528863  0.06165952    -0.78100
C1573       C  0.68857431  0.34266869  0.06084456     0.82600
N1574       N  0.67166264  0.31137721  0.05922227    -0.78100
C1575       C  0.64083088  0.29242643  0.05755737     0.82700
N1576       N  0.62703326  0.30529724  0.05773746    -0.79800
O1577       O  0.55293438  0.45999205  0.33418282    -0.75300
O1578       O  0.55187290  0.45976139  0.38616193    -0.54200
C1579       C  0.55964429  0.45483801  0.35554026     0.78400
O1580       O  0.54762152  0.08823053  0.38465890    -0.59900
O1581       O  0.50192518  0.06034438  0.36418428    -0.53000
C1582       C  0.52895904  0.08565742  0.37037219     0.70400
O1583       O  0.58970960  0.06364412  0.42976675    -0.74500
O1584       O  0.57398782  0.51819845  0.43673726    -0.55100
C1585       C  0.59341613  0.04709144  0.43940472     0.76400
O1586       O  0.51002829  0.48414800  0.29091245    -0.59600
O1587       O  0.98076352  0.00300309  0.31291353    -0.52800
C1588       C  0.99583272  0.49230626  0.28508193     0.73000
Zr1589     Zr  0.52469278  0.47903189  0.33329925     2.54700
O1590       O  0.57366928  0.51119383  0.30212314    -0.80200
O1591       O  0.00917853  0.43290342  0.28530815    -0.93600
Zr1592     Zr  0.54977047  0.05540275  0.40713736     2.64700
O1593       O  0.59999701  0.08628260  0.37735268    -0.98600
O1594       O  0.56159920  0.09950518  0.45226258    -0.80600
O1595       O  0.55083277  0.51055013  0.38035422    -0.84000
O1596       O  0.52503047  0.02476896  0.35917738    -2.18700
O1597       O  0.90633146  0.42228200  0.36078826    -0.67400
O1598       O  0.92369193  0.46822437  0.35014849    -0.51900
C1599       C  0.90319513  0.43888068  0.35050578     0.71400
O1600       O  0.98338680  0.99726461  0.49938250    -0.60300
O1601       O  0.51390531  0.48023313  0.47741954    -0.52300
C1602       C  0.98987444  0.49040579  0.00387166     0.73200
O1603       O  0.94487677  0.02680385  0.45690936    -0.71700
O1604       O  0.94518418  0.02699168  0.40514203    -0.50400
C1605       C  0.93858081  0.03274167  0.43593141     0.74600
O1606       O  0.94773407  0.39696085  0.40588548    -0.67000
O1607       O  0.99343240  0.42506585  0.42662602    -0.54200
C1608       C  0.96640179  0.39995523  0.42050141     0.73000
Zr1609     Zr  0.94499889  0.42936314  0.38409545     2.77500
O1610       O  0.89810983  0.39898792  0.41858658    -0.97800
O1611       O  0.92809111  0.38336817  0.34008126    -0.78600
Zr1612     Zr  0.96982075  0.00413075  0.45697464     2.70100
O1613       O  0.92105783  0.46956953  0.47999862    -0.79800
O1614       O  0.48468598  0.04864590  0.50858153    -0.98900
Zr1615     Zr  0.52236369  0.47857209  0.41979383     2.21500
Zr1616     Zr  0.97299574  0.00648754  0.37054225     2.11100
O1617       O  0.94590722  0.47461061  0.40665368    -2.47600
O1618       O  0.96983738  0.45944773  0.43201309    -0.79600
O1619       O  0.97244353  0.46012610  0.34398777    -0.71800
O1620       O  0.52270258  0.02452963  0.44716891    -2.32800
O1621       O  0.99621009  0.44511099  0.36947222    -2.29000
O1622       O  0.49831513  0.03917265  0.42217397    -0.73600
H1623       H  0.53527655  0.03712391  0.34278235     0.78400
H1624       H  0.53337975  0.03618126  0.46625617     0.79500
H1625       H  0.92522034  0.46884048  0.41166672     0.81700
H1626       H  0.99587669  0.42680255  0.36174191     0.79300
H1627       H  0.57065317  0.11730220  0.44223677     0.42400
H1628       H  0.50128052  0.06803427  0.50022618     0.41300
H1629       H  0.92319942  0.47788771  0.50346979     0.41000
H1630       H  0.89206003  0.41315412  0.43028968     0.39000
H1631       H  0.94232995  0.37808185  0.33792131     0.42100
H1632       H  0.99532994  0.41426774  0.29529968     0.36900
H1633       H  0.57147004  0.49798689  0.28003438     0.43000
H1634       H  0.59632189  0.07712672  0.35428047     0.39400
H1635       H  0.88231495  0.38231633  0.40357799     0.44300
H1636       H  0.52727660  0.43488839  0.27863887     0.43000
H1637       H  0.60493709  0.10735428  0.38149969     0.43200
H1638       H  0.95978811  0.04811299  0.00975896     0.43500
O1639       O  0.52969550  0.44154827  0.08805488    -0.75300
O1640       O  0.52961686  0.44354915  0.14057279    -0.54200
C1641       C  0.53523318  0.43568055  0.10982107     0.78400
O1642       O  0.55942338  0.08637534  0.12849168    -0.59900
O1643       O  0.51363810  0.06713592  0.11395877    -0.53000
C1644       C  0.54244137  0.08845925  0.11693324     0.70400
O1645       O  0.58585780  0.04657784  0.17601356    -0.74500
O1646       O  0.56020668  0.50199648  0.18883838    -0.55100
C1647       C  0.58384271  0.02790426  0.18903068     0.76400
O1648       O  0.50056841  0.47888471  0.04354631    -0.59600
O1649       O  0.97931830  0.00540082  0.06480663    -0.52800
C1650       C  0.98961932  0.49024454  0.03711571     0.73000
Zr1651     Zr  0.50804556  0.46728629  0.08672443     2.54700
O1652       O  0.55302585  0.48285551  0.04691086    -0.80200
O1653       O  0.97425071  0.41110127  0.05210985    -0.93600
Zr1654     Zr  0.55362987  0.04881684  0.15143804     2.64700
O1655       O  0.59870512  0.06359912  0.11209471    -0.98600
O1656       O  0.58350300  0.10000971  0.18684813    -0.80600
O1657       O  0.53944728  0.49729420  0.12981764    -0.84000
O1658       O  0.52326007  0.01921100  0.10744552    -2.18700
O1659       O  0.89974999  0.43847776  0.12226678    -0.67400
O1660       O  0.92628225  0.48436959  0.10539329    -0.51900
C1661       C  0.90186367  0.45702920  0.10906541     0.71400
O1662       O  0.98475173  0.00906503  0.25421073    -0.60300
O1663       O  0.50463907  0.48050900  0.23215573    -0.52300
C1664       C  0.99521500  0.49262816  0.25238523     0.73200
O1665       O  0.96038257  0.04936588  0.20892625    -0.71700
O1666       O  0.95809820  0.04516494  0.15649267    -0.50400
C1667       C  0.95409168  0.05452118  0.18724233     0.74600
O1668       O  0.92682933  0.39921120  0.16789587    -0.67000
O1669       O  0.97279691  0.41867144  0.18218164    -0.54200
C1670       C  0.94409282  0.39709144  0.17879169     0.73000
Zr1671     Zr  0.93267161  0.43744198  0.14656040     2.77500
O1672       O  0.88898779  0.42332462  0.18808667    -0.97800
O1673       O  0.90226131  0.38687508  0.11049865    -0.78600
Zr1674     Zr  0.97948016  0.02163427  0.21063895     2.70100
O1675       O  0.93559244  0.50540760  0.24705596    -0.79800
O1676       O  0.51194301  0.07336755  0.24611389    -0.98900
Zr1677     Zr  0.50881963  0.47203246  0.17416687     2.21500
Zr1678     Zr  0.97774534  0.01546351  0.12318566     2.11100
O1679       O  0.94744862  0.48939842  0.16414443    -2.47600
O1680       O  0.96366835  0.46739779  0.18996604    -0.79600
O1681       O  0.96149998  0.46099221  0.10096392    -0.71800
O1682       O  0.52416291  0.02442469  0.19627874    -2.32800
O1683       O  0.97754052  0.43910134  0.12724921    -2.29000
O1684       O  0.50853987  0.04693697  0.16979462    -0.73600
H1685       H  0.53440387  0.02966405  0.08942473     0.78400
H1686       H  0.53639024  0.03525665  0.21415943     0.79500
H1687       H  0.92928998  0.48892641  0.17058233     0.81700
H1688       H  0.97219232  0.41817768  0.12111810     0.79300
H1689       H  0.56813540  0.10069187  0.20437309     0.42400
H1690       H  0.49852244  0.07457388  0.26594709     0.41300
H1691       H  0.91833875  0.48509550  0.23608457     0.41000
H1692       H  0.88377874  0.43752720  0.18950269     0.39000
H1693       H  0.91673540  0.38777385  0.09091700     0.42100
H1694       H  0.98851083  0.40823554  0.03471542     0.36900
H1695       H  0.56969220  0.50384277  0.05768202     0.43000
H1696       H  0.60277871  0.04840252  0.11027977     0.39400
H1697       H  0.87172744  0.40233875  0.17804881     0.44300
H1698       H  0.46094301  0.41600651  0.04628459     0.43000
H1699       H  0.59089846  0.05743805  0.09138976     0.43200
H1700       H  0.99680286  0.07447074  0.26316966     0.43500
C1701       C  0.62234167  0.25942482  0.06109395     0.01300
C1702       C  0.63492431  0.24238538  0.04732626     0.04100
C1703       C  0.62203488  0.21489103  0.05740731    -0.11900
C1704       C  0.59492088  0.20270639  0.07900729     0.23400
C1705       C  0.58018475  0.21742643  0.08978464    -0.12500
C1706       C  0.59409020  0.24611105  0.08159185     0.04800
C1707       C  0.58113305  0.17349686  0.08914451     0.27200
C1708       C  0.56443992  0.14448939  0.06768943    -0.13200
C1709       C  0.55294932  0.11676071  0.07617579     0.05300
C1710       C  0.55681104  0.11780100  0.10689030    -0.09200
C1711       C  0.57275490  0.14687599  0.12879506     0.06200
C1712       C  0.58504517  0.17470745  0.11983855    -0.13500
Br1713     Br  0.54093223  0.19812782  0.11618910    -0.05600
Br1714     Br  0.67912004  0.25411669  0.51702841     0.00000
Br1715     Br  0.53368673  0.07782927  0.04475877     0.00500
Br1716     Br  0.60652212  0.21441649  0.14995054    -0.03900
Br1717     Br  0.57431007  0.26686321  0.10049919     0.00600
Br1718     Br  0.64188151  0.19418521  0.04230656    -0.03200
Br1719     Br  0.55684472  0.14299543  0.02695651    -0.04100
Br1720     Br  0.57644567  0.14873508  0.17179262    -0.00100
C1721       C  0.72131445  0.36310475  0.06596271     0.01300
C1722       C  0.74401696  0.38543165  0.04659534     0.04100
C1723       C  0.77534260  0.40282293  0.05029689    -0.10700
C1724       C  0.78382645  0.39809046  0.07342423     0.23400
C1725       C  0.76121870  0.37635792  0.09314284    -0.12500
C1726       C  0.72999941  0.35984508  0.09034735     0.04800
C1727       C  0.81642387  0.41668606  0.07836614     0.27200
C1728       C  0.83350804  0.40487179  0.06153570    -0.13200
C1729       C  0.86258982  0.41958462  0.07037355     0.05300
C1730       C  0.87406342  0.44539063  0.09666292    -0.09200
C1731       C  0.85772732  0.45827766  0.11233095     0.06200
C1732       C  0.82901856  0.44414369  0.10280945    -0.13500
Br1733     Br  0.77317331  0.36868805  0.12351863    -0.05600
Br1734     Br  0.74294950  0.37747932  0.50191341     0.00000
Br1735     Br  0.88671239  0.40428459  0.04685986     0.00500
Br1736     Br  0.80599445  0.46113648  0.12417085    -0.03900
Br1737     Br  0.69941628  0.33560980  0.12242864     0.00600
Br1738     Br  0.81755541  0.42266053  0.51208366    -0.03200
Br1739     Br  0.81609798  0.36738019  0.02792031    -0.04100
Br1740     Br  0.87344802  0.49356592  0.14834450    -0.00100
C1741       C  0.54910372  0.41860868  0.09874221     0.01300
C1742       C  0.53487077  0.39099704  0.10967217     0.04100
C1743       C  0.54954542  0.37649045  0.10210330    -0.11900
C1744       C  0.57801391  0.38901028  0.08278096     0.23400
C1745       C  0.59124216  0.41512907  0.06982504    -0.12500
C1746       C  0.57692388  0.43007912  0.07786622     0.04800
C1747       C  0.59467431  0.37540171  0.07688695     0.27200
C1748       C  0.61542465  0.38693959  0.09851695    -0.13200
C1749       C  0.63142174  0.37416614  0.09314145     0.05300
C1750       C  0.62756950  0.35066914  0.06523363    -0.09200
C1751       C  0.60720995  0.33962153  0.04326048     0.06200
C1752       C  0.59036149  0.35163829  0.04942392    -0.13500
Br1753     Br  0.62926001  0.43043196  0.04136561    -0.05600
Br1754     Br  0.49425271  0.37158910  0.13296127     0.00000
Br1755     Br  0.65699733  0.38783751  0.12528372     0.00500
Br1756     Br  0.56143201  0.33585352  0.02034485    -0.03900
Br1757     Br  0.59634646  0.46678104  0.06097029     0.00600
Br1758     Br  0.53083051  0.33949874  0.11816857    -0.03200
Br1759     Br  0.62187891  0.42037977  0.13547576    -0.04100
Br1760     Br  0.60350215  0.30923460  0.00390811    -0.00100
C1761       C  0.53986290  0.11414053  0.36045026     0.01300
C1762       C  0.56894452  0.13071673  0.34243017     0.04100
C1763       C  0.58142978  0.15995809  0.33678417    -0.11900
C1764       C  0.56437641  0.17227897  0.34767948     0.23400
C1765       C  0.53471193  0.15521949  0.36436561    -0.12500
C1766       C  0.52245104  0.12615794  0.37068803     0.04800
C1767       C  0.57870301  0.20358265  0.34183003     0.27200
C1768       C  0.59728936  0.23078856  0.36444776    -0.13200
C1769       C  0.61681317  0.26033698  0.35596497     0.05300
C1770       C  0.61852220  0.26265954  0.32446246    -0.09200
C1771       C  0.59907820  0.23558655  0.30222700     0.06200
C1772       C  0.57858649  0.20620018  0.31125296    -0.13500
Br1773     Br  0.51158790  0.17235558  0.37976333    -0.05600
Br1774     Br  0.59113548  0.11268893  0.32350404     0.00000
Br1775     Br  0.64172866  0.29757113  0.38737532     0.00500
Br1776     Br  0.55127711  0.16908831  0.28137760    -0.03900
Br1777     Br  0.48240198  0.10358026  0.39458553     0.00600
Br1778     Br  0.62268374  0.18398637  0.31515815    -0.03200
Br1779     Br  0.59734282  0.22711597  0.40630651    -0.04100
Br1780     Br  0.60261443  0.23819825  0.25851114    -0.00100
C1781       C  0.72499573  0.35519652  0.30750873     0.01300
C1782       C  0.73903258  0.34064399  0.28748535     0.04100
C1783       C  0.76995562  0.35470292  0.28955782    -0.11900
C1784       C  0.78727664  0.38401491  0.31040193     0.23400
C1785       C  0.77413259  0.39977866  0.32850142    -0.12500
C1786       C  0.74288335  0.38521117  0.32763748     0.04800
C1787       C  0.81707190  0.39569037  0.31828373     0.27200
C1788       C  0.81752613  0.39026118  0.34684835    -0.13200
C1789       C  0.84567720  0.40470226  0.35764141     0.05300
C1790       C  0.87356637  0.42305182  0.33874853    -0.09200
C1791       C  0.87291736  0.42667395  0.30895504     0.06200
C1792       C  0.84471876  0.41408083  0.29940128    -0.13500
Br1793     Br  0.79851763  0.44003460  0.35715194    -0.05600
Br1794     Br  0.71618547  0.30161838  0.25688798     0.00000
Br1795     Br  0.84528832  0.40105232  0.39965341     0.00500
Br1796     Br  0.84396208  0.42330863  0.26160710    -0.03900
Br1797     Br  0.72456167  0.40544016  0.35688144     0.00600
Br1798     Br  0.78792937  0.33275154  0.26601550    -0.03200
Br1799     Br  0.77923669  0.36431270  0.37220591    -0.04100
Br1800     Br  0.91023754  0.44712542  0.28028443    -0.00100
C1801       C  0.63876883  0.35785837  0.31384072     0.01300
C1802       C  0.65116423  0.37829847  0.29277585     0.04100
C1803       C  0.64143303  0.39718588  0.29806565    -0.11900
C1804       C  0.61848967  0.39469065  0.32343632     0.23400
C1805       C  0.60591612  0.37421030  0.34421955    -0.12500
C1806       C  0.61678922  0.35669399  0.34024595     0.04800
C1807       C  0.60641575  0.41259022  0.32794138     0.27200
C1808       C  0.61867309  0.44169149  0.34991883    -0.13200
C1809       C  0.60442852  0.45661034  0.35734100     0.05300
C1810       C  0.57702598  0.44158310  0.34407939    -0.09200
C1811       C  0.56532742  0.41285518  0.32131862     0.06200
C1812       C  0.58046075  0.39875507  0.31277698    -0.13500
Br1813     Br  0.57331993  0.36989747  0.37799131    -0.05600
Br1814     Br  0.68053800  0.37983826  0.25594402     0.00000
Br1815     Br  0.62294796  0.49797616  0.38487050     0.00500
Br1816     Br  0.56474265  0.35949444  0.28161712    -0.03900
Br1817     Br  0.60308119  0.33342368  0.37295660     0.00600
Br1818     Br  0.65915365  0.42637507  0.27062927    -0.03200
Br1819     Br  0.65400814  0.46021971  0.37095246    -0.04100
Br1820     Br  0.52716425  0.39106041  0.30383020    -0.00100
C1821       C  0.86011429  0.13635775  0.23100750     0.01300
C1822       C  0.88048396  0.14966299  0.25393686     0.04100
C1823       C  0.89760618  0.13847651  0.25045970    -0.11900
C1824       C  0.89480396  0.11468607  0.22367127     0.23400
C1825       C  0.87377615  0.10080271  0.20136251    -0.12500
C1826       C  0.85682824  0.11198332  0.20462066     0.04800
C1827       C  0.91309441  0.10314056  0.21878896     0.27200
C1828       C  0.93994078  0.11423605  0.19676384    -0.13200
C1829       C  0.95371900  0.09859210  0.18662821     0.05300
C1830       C  0.94071289  0.07201029  0.19885907    -0.09200
C1831       C  0.91457419  0.06198494  0.22221152     0.06200
C1832       C  0.90082954  0.07758628  0.23208254    -0.13500
Br1833     Br  0.86752727  0.06570693  0.16675805    -0.05600
Br1834     Br  0.88462317  0.18279217  0.29022918     0.00000
Br1835     Br  0.99033060  0.11375267  0.15609115     0.00500
Br1836     Br  0.86368464  0.06270351  0.26199670    -0.03900
Br1837     Br  0.83103675  0.09518027  0.17125612     0.00600
Br1838     Br  0.92380433  0.15463676  0.28288109    -0.03200
Br1839     Br  0.95685767  0.15007346  0.17959428    -0.04100
Br1840     Br  0.89530198  0.02510021  0.23868217    -0.00100
C1841       C  0.93033346  0.36721669  0.18695193     0.01300
C1842       C  0.93404597  0.36706957  0.21708264     0.04100
C1843       C  0.92350904  0.33893002  0.22365557    -0.11900
C1844       C  0.90782222  0.31072176  0.20085285     0.23400
C1845       C  0.90391387  0.31066307  0.17080834    -0.12500
C1846       C  0.91536381  0.33893578  0.16370898     0.04800
C1847       C  0.89316094  0.28077639  0.20953764     0.27200
C1848       C  0.90612598  0.26427501  0.19633010    -0.13200
C1849       C  0.89014687  0.23416220  0.20193014     0.05300
C1850       C  0.86269543  0.22197796  0.22341861    -0.09200
C1851       C  0.85122741  0.23983337  0.23871782     0.06200
C1852       C  0.86552711  0.26841332  0.23037038    -0.13500
Br1853     Br  0.88298645  0.27176178  0.13936632    -0.05600
Br1854     Br  0.95147948  0.40481836  0.25030072     0.00000
Br1855     Br  0.90481773  0.20912516  0.17755687     0.00500
Br1856     Br  0.84649224  0.28994393  0.24619928    -0.03900
Br1857     Br  0.91175610  0.33867989  0.12144570     0.00600
Br1858     Br  0.93051483  0.33871007  0.26377057    -0.03200
Br1859     Br  0.94538890  0.28271379  0.16998470    -0.04100
Br1860     Br  0.81681187  0.22606507  0.27212200    -0.00100
C1861       C  0.76536954  0.11753188  0.22277910     0.01300
C1862       C  0.74403926  0.10101067  0.24729385     0.04100
C1863       C  0.71240702  0.08189155  0.24451312    -0.11900
C1864       C  0.70231249  0.07970913  0.21750158     0.23400
C1865       C  0.72362484  0.09487112  0.19219881    -0.12500
C1866       C  0.75524636  0.11347545  0.19459908     0.04800
C1867       C  0.66949857  0.06392163  0.21649135     0.27200
C1868       C  0.65123422  0.03266248  0.19979133    -0.13200
C1869       C  0.62254484  0.02021358  0.19160187     0.05300
C1870       C  0.61192926  0.03903827  0.20093618    -0.09200
C1871       C  0.62941592  0.06955205  0.22022647     0.06200
C1872       C  0.65820634  0.08195772  0.22784621    -0.13500
Br1873     Br  0.70923280  0.09098104  0.15488463    -0.05600
Br1874     Br  0.75786854  0.10599403  0.28564116     0.00000
Br1875     Br  0.59926451  0.47904627  0.16233203     0.00500
Br1876     Br  0.68347546  0.12458381  0.25191981    -0.03900
Br1877     Br  0.78447763  0.13237635  0.15882803     0.00600
Br1878     Br  0.68280278  0.05962780  0.27808650    -0.03200
Br1879     Br  0.66691818  0.00805419  0.18646486    -0.04100
Br1880     Br  0.61475504  0.09510726  0.23576170    -0.00100
C1881       C  0.86342289  0.13308884  0.47776421     0.01300
C1882       C  0.85484356  0.11693420  0.50190011     0.04100
C1883       C  0.86757796  0.10137150  0.49919041    -0.11900
C1884       C  0.88842909  0.10157507  0.47222523     0.23400
C1885       C  0.89733450  0.11797063  0.44834609    -0.12500
C1886       C  0.88496691  0.13382131  0.45106382     0.04800
C1887       C  0.89901652  0.08227503  0.46710883     0.27200
C1888       C  0.92659954  0.09533308  0.47853423    -0.13200
C1889       C  0.93902384  0.07847680  0.46915914     0.05300
C1890       C  0.92379692  0.04863661  0.44830174    -0.09200
C1891       C  0.89564128  0.03518369  0.43776633     0.06200
C1892       C  0.88299492  0.05185093  0.44768230    -0.13500
Br1893     Br  0.92542701  0.11739987  0.41103116    -0.05600
Br1894     Br  0.88496922  0.16858313  0.03501056     0.00000
Br1895     Br  0.97873513  0.09799124  0.48175813     0.00500
Br1896     Br  0.84467744  0.03949470  0.99783269    -0.03900
Br1897     Br  0.89607054  0.15429235  0.41664238     0.00600
Br1898     Br  0.85605060  0.07902181  0.53180257    -0.03200
Br1899     Br  0.94808229  0.13692706  0.50550792    -0.04100
Br1900     Br  0.87550871  0.00075231  0.97482631    -0.00100
C1901       C  0.87483512  0.22431211  0.46938996     0.01300
C1902       C  0.87089608  0.22852975  0.44199043     0.04100
C1903       C  0.88831350  0.25875110  0.43594452    -0.11900
C1904       C  0.91062706  0.28468067  0.45646010     0.23400
C1905       C  0.91595365  0.28043892  0.48273671    -0.12500
C1906       C  0.89805377  0.25021500  0.48926118     0.04800
C1907       C  0.92784697  0.31642400  0.45049464     0.27200
C1908       C  0.95392946  0.32757054  0.42738485    -0.13200
C1909       C  0.96787741  0.35606774  0.41875188     0.05300
C1910       C  0.95491832  0.37258581  0.43231108    -0.09200
C1911       C  0.92928560  0.36175853  0.45595993     0.06200
C1912       C  0.91617609  0.33404616  0.46559578    -0.13500
Br1913     Br  0.94746294  0.31631228  0.50983661    -0.05600
Br1914     Br  0.84344662  0.19274060  0.41116357     0.00000
Br1915     Br  0.00306284  0.37118363  0.38658399     0.00500
Br1916     Br  0.85780608  0.29636146  0.97526486    -0.03900
Br1917     Br  0.86719934  0.24221002  0.04405212     0.00600
Br1918     Br  0.88149975  0.26483808  0.39965771    -0.03200
Br1919     Br  0.96898973  0.30258020  0.40611344    -0.04100
Br1920     Br  0.88863333  0.36578928  0.96261536    -0.00100
C1921       C  0.77145452  0.12784228  0.48524576     0.01300
C1922       C  0.75737722  0.14213459  0.50570839     0.04100
C1923       C  0.72777402  0.13043505  0.50117937    -0.11900
C1924       C  0.71055791  0.10202809  0.47902722     0.23400
C1925       C  0.72285449  0.08513425  0.46215976    -0.12500
C1926       C  0.75355056  0.09833662  0.46448210     0.04800
C1927       C  0.68066036  0.09082161  0.47121494     0.27200
C1928       C  0.65295637  0.07256562  0.49019987    -0.13200
C1929       C  0.62456099  0.05979541  0.48074445     0.05300
C1930       C  0.62352113  0.06316247  0.45095696    -0.09200
C1931       C  0.65146167  0.08141590  0.43194575     0.06200
C1932       C  0.67986824  0.09615090  0.44272721    -0.13500
Br1933     Br  0.69790287  0.04456023  0.43447194    -0.05600
Br1934     Br  0.77783714  0.17621441  0.54158098     0.00000
Br1935     Br  0.58065065  0.04342216  0.01943272     0.00500
Br1936     Br  0.71802218  0.12286425  0.41782560    -0.03900
Br1937     Br  0.77080997  0.07632613  0.43781512     0.00600
Br1938     Br  0.71204878  0.15465021  0.52335001    -0.03200
Br1939     Br  0.64757866  0.07688368  0.04529305    -0.04100
Br1940     Br  0.65139955  0.08382569  0.38945961    -0.00100
C1941       C  0.84943065  0.14854726  0.47990897     0.80200
N1942       N  0.81829463  0.13205076  0.48308800    -0.78100
C1943       C  0.80532954  0.14576996  0.48321909     0.82600
N1944       N  0.82382692  0.17605411  0.47967924    -0.78100
C1945       C  0.85497202  0.19265021  0.47648752     0.82700
N1946       N  0.86764878  0.17879253  0.47662362    -0.79800
C1947       C  0.85314422  0.14753817  0.73483054     0.80200
N1948       N  0.82250941  0.12863952  0.73246378    -0.78100
C1949       C  0.80845895  0.14065719  0.73104584     0.82600
N1950       N  0.82525113  0.17168635  0.73148560    -0.78100
C1951       C  0.85595172  0.19098936  0.73424761     0.82700
N1952       N  0.86985956  0.17870336  0.73577322    -0.79800
C1953       C  0.64586680  0.33010377  0.79885469     0.80200
N1954       N  0.62912316  0.30011023  0.80241472    -0.78100
C1955       C  0.64310318  0.28647772  0.79849435     0.82600
N1956       N  0.67423874  0.30348157  0.79172809    -0.78100
C1957       C  0.69155153  0.33365260  0.78808870     0.82700
N1958       N  0.67698906  0.34676558  0.79176541    -0.79800
C1959       C  0.65529468  0.33507905  0.55507130     0.80200
N1960       N  0.68607817  0.35383234  0.55666055    -0.78100
C1961       C  0.69991217  0.34188414  0.55906022     0.82600
N1962       N  0.68275070  0.31121695  0.56046258    -0.78100
C1963       C  0.65193073  0.29221966  0.55874880     0.82700
N1964       N  0.63835011  0.30433319  0.55598749    -0.79800
O1965       O  0.54559096  0.45024328  0.84519331    -0.75300
O1966       O  0.54224348  0.45284449  0.89885253    -0.54200
C1967       C  0.55008318  0.44529936  0.86867982     0.78400
O1968       O  0.54978469  0.08590207  0.88229997    -0.59900
O1969       O  0.50556234  0.05756945  0.85860057    -0.53000
C1970       C  0.53224641  0.08282531  0.86589213     0.70400
O1971       O  0.58654660  0.05999002  0.93229979    -0.74500
O1972       O  0.56632491  0.51511140  0.94382839    -0.55100
C1973       C  0.58806808  0.04401322  0.94567691     0.76400
O1974       O  0.51552742  0.47879358  0.78979832    -0.59600
O1975       O  0.98682725  0.99800837  0.80666721    -0.52800
C1976       C  0.00125626  0.48819935  0.78229694     0.73000
Zr1977     Zr  0.52182168  0.47183222  0.83758583     2.54700
O1978       O  0.57405493  0.50073081  0.81055363    -0.80200
O1979       O  0.00912062  0.42683063  0.79043881    -0.93600
Zr1980     Zr  0.54895134  0.05269709  0.90703013     2.64700
O1981       O  0.59844876  0.08205354  0.87510796    -0.98600
O1982       O  0.56165840  0.09745463  0.95170823    -0.80600
O1983       O  0.54649863  0.50540132  0.88510087    -0.84000
O1984       O  0.52589254  0.02042363  0.85843964    -2.18700
O1985       O  0.90272466  0.42077160  0.85876093    -0.67400
O1986       O  0.92364363  0.46561460  0.84277873    -0.51900
C1987       C  0.90145789  0.43700075  0.84528243     0.71400
O1988       O  0.97456490  0.00006120  0.00261486    -0.60300
O1989       O  0.50506340  0.48295101  0.98469046    -0.52300
C1990       C  0.00010612  0.48904222  0.49915697     0.73200
O1991       O  0.94126527  0.02695924  0.94726841    -0.71700
O1992       O  0.94327819  0.02228800  0.89342442    -0.50400
C1993       C  0.93519263  0.02999266  0.92339440     0.74600
O1994       O  0.93999145  0.39516884  0.91121869    -0.67000
O1995       O  0.98338689  0.42340809  0.93619269    -0.54200
C1996       C  0.95702771  0.39801530  0.92827516     0.73000
Zr1997     Zr  0.93959081  0.42772426  0.88636080     2.77500
O1998       O  0.89063176  0.40186944  0.91994720    -0.97800
O1999       O  0.92304119  0.37932405  0.84597706    -0.78600
Zr2000     Zr  0.96607059  0.00640753  0.95523942     2.70100
O2001       O  0.91689238  0.47785793  0.98283170    -0.79800
O2002       O  0.48453878  0.05681352  0.00108907    -0.98900
Zr2003     Zr  0.51496303  0.47617515  0.92661037     2.21500
Zr2004     Zr  0.97406276  0.00336514  0.86503741     2.11100
O2005       O  0.94280243  0.47430667  0.90461167    -2.47600
O2006       O  0.96342909  0.45992592  0.93487761    -0.79600
O2007       O  0.97041906  0.45597822  0.84420915    -0.71800
O2008       O  0.51892631  0.02420717  0.94895847    -2.32800
O2009       O  0.99031341  0.44161346  0.87537793    -2.29000
O2010       O  0.49831704  0.03878394  0.91779571    -0.73600
H2011       H  0.53736927  0.03219332  0.84139290     0.78400
H2012       H  0.52902591  0.03640750  0.96839777     0.79500
H2013       H  0.92242518  0.46910111  0.90800559     0.81700
H2014       H  0.98907575  0.42278682  0.86953836     0.79300
H2015       H  0.54178922  0.09442080  0.96016339     0.42400
H2016       H  0.48588173  0.07124649  0.99151720     0.41300
H2017       H  0.91319315  0.45806790  0.98255764     0.41000
H2018       H  0.88683245  0.41797158  0.92992360     0.39000
H2019       H  0.90141041  0.36948138  0.84385632     0.42100
H2020       H  0.99690053  0.40866316  0.80097351     0.36900
H2021       H  0.58742663  0.51440446  0.82834628     0.43000
H2022       H  0.59344018  0.07594045  0.85278242     0.39400
H2023       H  0.87497980  0.38612221  0.90454525     0.44300
H2024       H  0.52330222  0.42437660  0.78772325     0.43000
H2025       H  0.60593003  0.10425809  0.88254991     0.43200
H2026       H  0.96213549  0.04369859  0.51384631     0.43500
O2027       O  0.53790486  0.43546707  0.58280429    -0.75300
O2028       O  0.53832449  0.43707526  0.63505675    -0.54200
C2029       C  0.54353865  0.42929898  0.60418526     0.78400
O2030       O  0.56878393  0.08435085  0.62493976    -0.59900
O2031       O  0.52287028  0.06406393  0.60973091    -0.53000
C2032       C  0.55141288  0.08600913  0.61349172     0.70400
O2033       O  0.59748491  0.04441983  0.66800883    -0.74500
O2034       O  0.57083417  0.49678994  0.68189295    -0.55100
C2035       C  0.59560392  0.02608552  0.68138861     0.76400
O2036       O  0.50911998  0.47254017  0.53672139    -0.59600
O2037       O  0.99124743  0.00258527  0.55850435    -0.52800
C2038       C  0.00104718  0.48865933  0.53199636     0.73000
Zr2039     Zr  0.51691678  0.46142492  0.58068386     2.54700
O2040       O  0.56172990  0.47656136  0.54063042    -0.80200
O2041       O  0.98362352  0.41029610  0.54581507    -0.93600
Zr2042     Zr  0.56364242  0.04594352  0.64580082     2.64700
O2043       O  0.60933228  0.06374929  0.60668389    -0.98600
O2044       O  0.59073560  0.09520246  0.68474540    -0.80600
O2045       O  0.54872604  0.49152809  0.62368727    -0.84000
O2046       O  0.53327422  0.01615607  0.60179291    -2.18700
O2047       O  0.91032318  0.43742507  0.61980474    -0.67400
O2048       O  0.93704464  0.48301345  0.60230459    -0.51900
C2049       C  0.91239475  0.45599716  0.60666401     0.71400
O2050       O  0.99569420  0.00558215  0.74782257    -0.60300
O2051       O  0.51417083  0.47564816  0.72765082    -0.52300
C2052       C  0.00332364  0.48936399  0.74881874     0.73200
O2053       O  0.96858563  0.04356436  0.70266815    -0.71700
O2054       O  0.96834497  0.04145501  0.65025108    -0.50400
C2055       C  0.96274807  0.04924390  0.68102235     0.74600
O2056       O  0.93663450  0.39682019  0.66398175    -0.67000
O2057       O  0.98238382  0.41569078  0.67824246    -0.54200
C2058       C  0.95347348  0.39450890  0.67540639     0.73000
Zr2059     Zr  0.94384094  0.43534627  0.64158184     2.77500
O2060       O  0.89892677  0.41934200  0.68143686    -0.97800
O2061       O  0.91645317  0.38572073  0.60325877    -0.78600
Zr2062     Zr  0.99034134  0.01807803  0.70405159     2.70100
O2063       O  0.94675963  0.50371488  0.74275771    -0.79800
O2064       O  0.52122477  0.07054906  0.74129717    -0.98900
Zr2065     Zr  0.51880376  0.46684188  0.66889177     2.21500
Zr2066     Zr  0.98845281  0.01215376  0.61690424     2.11100
O2067       O  0.95862379  0.48732915  0.65915607    -2.47600
O2068       O  0.97430050  0.46524219  0.68540090    -0.79600
O2069       O  0.97257444  0.45940336  0.59628684    -0.71800
O2070       O  0.53466395  0.02163985  0.69098359    -2.32800
O2071       O  0.98862344  0.43696375  0.62265008    -2.29000
O2072       O  0.51854036  0.04380406  0.66438692    -0.73600
H2073       H  0.54430899  0.02668523  0.58385477     0.78400
H2074       H  0.54701264  0.03265666  0.70877138     0.79500
H2075       H  0.94027645  0.48669157  0.66564301     0.81700
H2076       H  0.98312680  0.41596736  0.61658208     0.79300
H2077       H  0.57645484  0.09134676  0.70491857     0.42400
H2078       H  0.52506480  0.08505057  0.72952693     0.41300
H2079       H  0.92920206  0.48377032  0.73177989     0.41000
H2080       H  0.90641901  0.42306352  0.70134905     0.39000
H2081       H  0.93282911  0.38444295  0.58858415     0.42100
H2082       H  0.99139710  0.39837736  0.54467230     0.36900
H2083       H  0.57807199  0.49825255  0.55051661     0.43000
H2084       H  0.61159495  0.04654037  0.60007660     0.39400
H2085       H  0.89579360  0.43571475  0.68584868     0.44300
H2086       H  0.47105556  0.40878989  0.53946919     0.43000
H2087       H  0.60308344  0.06286275  0.58736855     0.43200
H2088       H  0.00937451  0.07182578  0.75545411     0.43500
C2089       C  0.63303742  0.25973517  0.56371698     0.01300
C2090       C  0.64373484  0.24103380  0.54924755     0.04100
C2091       C  0.62830762  0.21220774  0.55788128    -0.11900
C2092       C  0.60021764  0.20014713  0.57804708     0.23400
C2093       C  0.58789026  0.21732116  0.59001512    -0.12500
C2094       C  0.60522987  0.24791656  0.58478109     0.04800
C2095       C  0.58512469  0.17043016  0.58812532     0.27200
C2096       C  0.57176582  0.14183083  0.56525007    -0.13200
C2097       C  0.56232420  0.11456717  0.57304478     0.05300
C2098       C  0.56474825  0.11540488  0.60431444    -0.09200
C2099       C  0.57737328  0.14383066  0.62753341     0.06200
C2100       C  0.58761021  0.17132365  0.61942449    -0.13500
Br2101     Br  0.54746931  0.19907150  0.61396937    -0.05600
Br2102     Br  0.66869228  0.25542044  0.01317760     0.00000
Br2103     Br  0.54829494  0.07667285  0.54009541     0.00500
Br2104     Br  0.60558641  0.21035419  0.65109483    -0.03900
Br2105     Br  0.59238062  0.27436083  0.61013202     0.00600
Br2106     Br  0.64655029  0.18990610  0.54336825    -0.03200
Br2107     Br  0.56703334  0.14034323  0.52302562    -0.04100
Br2108     Br  0.57985216  0.14505568  0.67080239    -0.00100
C2109       C  0.73270501  0.36287520  0.56381050     0.01300
C2110       C  0.75504393  0.38091347  0.54065400     0.04100
C2111       C  0.78643059  0.40043708  0.54508691    -0.10700
C2112       C  0.79528742  0.40244985  0.57298754     0.23400
C2113       C  0.77300337  0.38485945  0.59635930    -0.12500
C2114       C  0.74172876  0.36503998  0.59180289     0.04800
C2115       C  0.82796413  0.41939872  0.57613470     0.27200
C2116       C  0.84081359  0.40280944  0.56380227    -0.13200
C2117       C  0.86870874  0.41513011  0.57353989     0.05300
C2118       C  0.88440483  0.44466509  0.59476305    -0.09200
C2119       C  0.87283885  0.46258713  0.60466369     0.06200
C2120       C  0.84444963  0.44980974  0.59543400    -0.13500
Br2121     Br  0.78563575  0.38647384  0.63370043    -0.05600
Br2122     Br  0.73268442  0.39269559  0.01526089     0.00000
Br2123     Br  0.88489178  0.39097836  0.55797503     0.00500
Br2124     Br  0.82751232  0.47327429  0.60994858    -0.03900
Br2125     Br  0.71148712  0.34129438  0.62435977     0.00600
Br2126     Br  0.80686554  0.43263540  0.02340088    -0.03200
Br2127     Br  0.81928386  0.36243097  0.53459848    -0.04100
Br2128     Br  0.89429021  0.50350350  0.63255817    -0.00100
C2129       C  0.55814212  0.41298254  0.59185475     0.01300
C2130       C  0.54417795  0.38399065  0.59963352     0.04100
C2131       C  0.55882524  0.36914627  0.58803608    -0.11900
C2132       C  0.58773639  0.38365396  0.56954364     0.23400
C2133       C  0.60112311  0.41187360  0.56062950    -0.12500
C2134       C  0.58647746  0.42667903  0.57193850     0.04800
C2135       C  0.60618209  0.37208857  0.56442156     0.27200
C2136       C  0.62496951  0.38346724  0.58829988    -0.13200
C2137       C  0.64214875  0.37230903  0.58450624     0.05300
C2138       C  0.63962098  0.34881125  0.55731152    -0.09200
C2139       C  0.62022488  0.33686039  0.53382162     0.06200
C2140       C  0.60379496  0.34882669  0.53717537    -0.13500
Br2141     Br  0.64031619  0.43092436  0.53430458    -0.05600
Br2142     Br  0.50563448  0.36497969  0.62697266     0.00000
Br2143     Br  0.66735157  0.38784536  0.61792404     0.00500
Br2144     Br  0.57713295  0.33264646  0.50526950    -0.03900
Br2145     Br  0.60728856  0.46766680  0.56338541     0.00600
Br2146     Br  0.54030979  0.32962487  0.59863570    -0.03200
Br2147     Br  0.62544306  0.41282269  0.62735364    -0.04100
Br2148     Br  0.61619361  0.30415418  0.49706392    -0.00100
C2149       C  0.54417123  0.11044346  0.85411615     0.01300
C2150       C  0.55849796  0.11321305  0.82223233     0.04100
C2151       C  0.57291432  0.14110731  0.81194745    -0.11900
C2152       C  0.57168085  0.16564290  0.83316288     0.23400
C2153       C  0.55571351  0.16197673  0.86444627    -0.12500
C2154       C  0.54299219  0.13490327  0.87529573     0.04800
C2155       C  0.58972975  0.19640719  0.82392524     0.27200
C2156       C  0.61777675  0.22161886  0.83696379    -0.13200
C2157       C  0.63495416  0.25108477  0.82896413     0.05300
C2158       C  0.62506427  0.25514436  0.80636750    -0.09200
C2159       C  0.59689296  0.22973417  0.79324681     0.06200
C2160       C  0.57896953  0.20067573  0.80262285    -0.13500
Br2161     Br  0.55212678  0.19453222  0.89276598    -0.05600
Br2162     Br  0.55959970  0.07927575  0.79349119     0.00000
Br2163     Br  0.67039412  0.28630754  0.85169716     0.00500
Br2164     Br  0.53910384  0.16696457  0.78733715    -0.03900
Br2165     Br  0.52524492  0.13186397  0.91963383     0.00600
Br2166     Br  0.59581835  0.14649712  0.76962222    -0.03200
Br2167     Br  0.63241669  0.21588152  0.86648449    -0.04100
Br2168     Br  0.58282611  0.23413131  0.76191500    -0.00100
C2169       C  0.72607362  0.35291694  0.78572527     0.01300
C2170       C  0.74062980  0.33778277  0.77146340     0.04100
C2171       C  0.77043379  0.35204236  0.77836365    -0.11900
C2172       C  0.78701835  0.38252953  0.79761405     0.23400
C2173       C  0.77459274  0.39960023  0.80754101    -0.12500
C2174       C  0.74429409  0.38504187  0.80171045     0.04800
C2175       C  0.81645064  0.39585237  0.80922330     0.27200
C2176       C  0.81630158  0.39567207  0.84113654    -0.13200
C2177       C  0.84403288  0.40949519  0.85302095     0.05300
C2178       C  0.87206179  0.42194135  0.83249944    -0.09200
C2179       C  0.87185434  0.42051179  0.80000015     0.06200
C2180       C  0.84437114  0.40833854  0.78868547    -0.13500
Br2181     Br  0.79885245  0.44271684  0.83069033    -0.05600
Br2182     Br  0.72050072  0.29796882  0.74109313     0.00000
Br2183     Br  0.84352235  0.41278435  0.89805843     0.00500
Br2184     Br  0.84479356  0.40873714  0.74507623    -0.03900
Br2185     Br  0.72870732  0.40987473  0.81692295     0.00600
Br2186     Br  0.78780548  0.32895904  0.76312896    -0.03200
Br2187     Br  0.77772375  0.37564657  0.86837290    -0.04100
Br2188     Br  0.90877864  0.43327241  0.77040281    -0.00100
C2189       C  0.63101112  0.34609546  0.80862677     0.01300
C2190       C  0.62997378  0.35814662  0.78621821     0.04100
C2191       C  0.61686080  0.37453075  0.79636376    -0.11900
C2192       C  0.60334616  0.37746734  0.82851988     0.23400
C2193       C  0.60376722  0.36477527  0.85073635    -0.12500
C2194       C  0.61828085  0.34985501  0.84104769     0.04800
C2195       C  0.58959299  0.39481181  0.83932261     0.27200
C2196       C  0.60734717  0.42689058  0.85432202    -0.13200
C2197       C  0.59437976  0.44345460  0.86469715     0.05300
C2198       C  0.56368425  0.42802691  0.85972356    -0.09200
C2199       C  0.54598439  0.39588176  0.84465339     0.06200
C2200       C  0.55882777  0.37926758  0.83471400    -0.13500
Br2201     Br  0.58495034  0.36845204  0.89464185    -0.05600
Br2202     Br  0.64574762  0.35144615  0.74153449     0.00000
Br2203     Br  0.61904531  0.48746700  0.88452980     0.00500
Br2204     Br  0.53438779  0.33517250  0.81476412    -0.03900
Br2205     Br  0.62264191  0.33658715  0.87284941     0.00600
Br2206     Br  0.61829433  0.39393689  0.76664271    -0.03200
Br2207     Br  0.64966024  0.44804980  0.85999321    -0.04100
Br2208     Br  0.50384194  0.37438658  0.83801409    -0.00100
C2209       C  0.86874244  0.13316575  0.72995632     0.01300
C2210       C  0.88408830  0.13928516  0.75463804     0.04100
C2211       C  0.89882705  0.12513343  0.74944903    -0.11900
C2212       C  0.89853628  0.10531751  0.71941149     0.23400
C2213       C  0.88253478  0.09866417  0.69503559    -0.12500
C2214       C  0.86787885  0.11278842  0.70016811     0.04800
C2215       C  0.91620833  0.09252367  0.71247446     0.27200
C2216       C  0.94551981  0.10749171  0.69470317    -0.13200
C2217       C  0.96049320  0.09298857  0.68353576     0.05300
C2218       C  0.94737654  0.06481719  0.69259686    -0.09200
C2219       C  0.91878508  0.05086919  0.71214949     0.06200
C2220       C  0.90273434  0.06409879  0.72096867    -0.13500
Br2221     Br  0.88068253  0.07006567  0.65460585    -0.05600
Br2222     Br  0.88439355  0.16658506  0.79554782     0.00000
Br2223     Br  0.99853737  0.11154439  0.65534790     0.00500
Br2224     Br  0.86145555  0.04234348  0.74285665    -0.03900
Br2225     Br  0.84797652  0.10542511  0.66563776     0.00600
Br2226     Br  0.91919436  0.13259352  0.78337707    -0.03200
Br2227     Br  0.96478074  0.14772077  0.68536415    -0.04100
Br2228     Br  0.89994715  0.01210625  0.72468153    -0.00100
C2229       C  0.93863462  0.36540106  0.68622643     0.01300
C2230       C  0.94154679  0.36721659  0.71771289     0.04100
C2231       C  0.93034901  0.34010401  0.72726993    -0.11900
C2232       C  0.91429840  0.31073609  0.70616927     0.23400
C2233       C  0.91008668  0.30852486  0.67514168    -0.12500
C2234       C  0.92269897  0.33589917  0.66492945     0.04800
C2235       C  0.90161137  0.28209070  0.71670306     0.27200
C2236       C  0.91678358  0.26780326  0.70535639    -0.13200
C2237       C  0.90226740  0.23794457  0.71099637     0.05300
C2238       C  0.87415493  0.22412004  0.73152145    -0.09200
C2239       C  0.86160076  0.24107478  0.74670952     0.06200
C2240       C  0.87418379  0.26894243  0.73768427    -0.13500
Br2241     Br  0.88744635  0.26797721  0.64652102    -0.05600
Br2242     Br  0.95899549  0.40644703  0.74864390     0.00000
Br2243     Br  0.91985744  0.21558562  0.68738342     0.00500
Br2244     Br  0.85327076  0.28853247  0.75294638    -0.03900
Br2245     Br  0.91946634  0.33285541  0.62124561     0.00600
Br2246     Br  0.93766883  0.34311502  0.76892235    -0.03200
Br2247     Br  0.95735759  0.28934336  0.68181966    -0.04100
Br2248     Br  0.82813045  0.22723209  0.78102942    -0.00100
C2249       C  0.77607348  0.11934708  0.72477995     0.01300
C2250       C  0.75295143  0.10142463  0.74758511     0.04100
C2251       C  0.72189914  0.08163127  0.74176395    -0.11900
C2252       C  0.71415244  0.07940763  0.71289855     0.23400
C2253       C  0.73738627  0.09620660  0.68944134    -0.12500
C2254       C  0.76834093  0.11628458  0.69542314     0.04800
C2255       C  0.68177117  0.06336085  0.70898643     0.27200
C2256       C  0.66439441  0.03249338  0.69092483    -0.13200
C2257       C  0.63581740  0.01983034  0.68217156     0.05300
C2258       C  0.62401317  0.03757471  0.69285992    -0.09200
C2259       C  0.64030544  0.06730218  0.71369685     0.06200
C2260       C  0.66946695  0.08048551  0.72101138    -0.13500
Br2261     Br  0.72657665  0.09296030  0.64982901    -0.05600
Br2262     Br  0.76365495  0.10551673  0.78764605     0.00000
Br2263     Br  0.61600835  0.47897950  0.64718339     0.00500
Br2264     Br  0.69337020  0.12261965  0.74654737    -0.03900
Br2265     Br  0.80007090  0.13935199  0.66317056     0.00600
Br2266     Br  0.68977352  0.05910671  0.77402913    -0.03200
Br2267     Br  0.68032506  0.00818136  0.67774652    -0.04100
Br2268     Br  0.62248792  0.08974668  0.73331922    -0.00100
C2269       C  0.85244693  0.12722957  0.97826172     0.01300
C2270       C  0.87347768  0.13493379  0.99716812     0.04100
C2271       C  0.88623898  0.11829899  0.98815070    -0.11900
C2272       C  0.87718132  0.09333077  0.96076556     0.23400
C2273       C  0.85565811  0.08539331  0.94228007    -0.12500
C2274       C  0.84421474  0.10307651  0.95033000     0.04800
C2275       C  0.89113761  0.07619872  0.95049064     0.27200
C2276       C  0.91461940  0.08318835  0.92451658    -0.13200
C2277       C  0.92765001  0.06675131  0.91425494     0.05300
C2278       C  0.91840341  0.04417230  0.93111173    -0.09200
C2279       C  0.89345138  0.03593744  0.95593752     0.06200
C2280       C  0.87982825  0.05182765  0.96540275    -0.13500
Br2281     Br  0.84205246  0.05043012  0.90570993    -0.05600
Br2282     Br  0.82600974  0.11628809  0.53895796     0.00000
Br2283     Br  0.95740905  0.07526851  0.87632661     0.00500
Br2284     Br  0.84432963  0.03374927  0.43364678    -0.03900
Br2285     Br  0.81976260  0.09632600  0.92129013     0.00600
Br2286     Br  0.91669361  0.13024827  0.01271366    -0.03200
Br2287     Br  0.92870700  0.11524666  0.90260817    -0.04100
Br2288     Br  0.87490536  0.99451609  0.40888813    -0.00100
C2289       C  0.86827035  0.22159439  0.97418233     0.01300
C2290       C  0.87674031  0.22535822  0.94193111     0.04100
C2291       C  0.89488591  0.25558721  0.93557380    -0.11900
C2292       C  0.90522372  0.28188046  0.96148431     0.23400
C2293       C  0.89853261  0.27809811  0.99353065    -0.12500
C2294       C  0.87926991  0.24784881  0.99996110     0.04800
C2295       C  0.91957340  0.31288979  0.95543778     0.27200
C2296       C  0.95116117  0.33220803  0.94509855    -0.13200
C2297       C  0.96394689  0.36061744  0.93696595     0.05300
C2298       C  0.94499928  0.36985681  0.93962738    -0.09200
C2299       C  0.91380275  0.35134040  0.95252999     0.06200
C2300       C  0.90102969  0.32267990  0.95975406    -0.13500
Br2301     Br  0.91536033  0.31441042  0.02847069    -0.05600
Br2302     Br  0.86256162  0.18907914  0.90672805     0.00000
Br2303     Br  0.00712786  0.38577602  0.92154816     0.00500
Br2304     Br  0.88130712  0.31929345  0.49832018    -0.03900
Br2305     Br  0.90505171  0.24466415  0.52574227     0.00600
Br2306     Br  0.90468051  0.26102369  0.89163123    -0.03200
Br2307     Br  0.97655400  0.31930354  0.94205409    -0.04100
Br2308     Br  0.91147736  0.38438297  0.47421591    -0.00100
C2309       C  0.76408379  0.13102769  0.00090077     0.01300
C2310       C  0.75210028  0.14880076  0.01101822     0.04100
C2311       C  0.72159163  0.13433561  0.00658183    -0.11900
C2312       C  0.70312839  0.10248620  0.99169036     0.23400
C2313       C  0.71342646  0.08396245  0.98507045    -0.12500
C2314       C  0.74338016  0.09779361  0.99077238     0.04800
C2315       C  0.67371360  0.08882555  0.98075995     0.27200
C2316       C  0.64620283  0.07532390  0.00153994    -0.13200
C2317       C  0.61806059  0.06074380  0.99025338     0.05300
C2318       C  0.61752382  0.05980514  0.95805879    -0.09200
C2319       C  0.64546713  0.07437833  0.93762507     0.06200
C2320       C  0.67341970  0.08860310  0.94894429    -0.13500
Br2321     Br  0.68667147  0.03969459  0.96615608    -0.05600
Br2322     Br  0.77651283  0.19289608  0.03143912     0.00000
Br2323     Br  0.58732319  0.03876473  0.50932646     0.00500
Br2324     Br  0.71150796  0.10725747  0.92067439    -0.03900
Br2325     Br  0.75440319  0.06987077  0.98388526     0.00600
Br2326     Br  0.70501256  0.15810964  0.01955619    -0.03200
Br2327     Br  0.65389582  0.06380075  0.52823778    -0.04100
Br2328     Br  0.64588246  0.07395599  0.89353882    -0.00100
C2329       C  0.83887811  0.64331238  0.98142206     0.80200
N2330       N  0.80840165  0.62992562  0.98991462    -0.78100
C2331       C  0.79669373  0.64580396  0.99376084     0.82600
N2332       N  0.81633402  0.67559509  0.98873865    -0.78100
C2333       C  0.84696141  0.68949480  0.98113215     0.82700
N2334       N  0.85826049  0.67322917  0.97700841    -0.79800
C2335       C  0.84429530  0.64776919  0.22765865     0.80200
N2336       N  0.81379595  0.62865729  0.22465075    -0.78100
C2337       C  0.79983507  0.64041626  0.22222035     0.82600
N2338       N  0.81652660  0.67140106  0.22259905    -0.78100
C2339       C  0.84704633  0.69064897  0.22606113     0.82700
N2340       N  0.86079098  0.67871506  0.22854473    -0.79800
C2341       C  0.64862579  0.83824118  0.30699826     0.80200
N2342       N  0.62860619  0.80759998  0.30938179    -0.78100
C2343       C  0.63928607  0.79193084  0.30999944     0.82600
N2344       N  0.67007165  0.80713432  0.30863480    -0.78100
C2345       C  0.69023001  0.83755532  0.30549498     0.82700
N2346       N  0.67929174  0.85292684  0.30485811    -0.79800
C2347       C  0.64519888  0.83794733  0.05721963     0.80200
N2348       N  0.67588245  0.85632101  0.05927445    -0.78100
C2349       C  0.68951120  0.84349640  0.05967286     0.82600
N2350       N  0.67206667  0.81225421  0.05868094    -0.78100
C2351       C  0.64130059  0.79364067  0.05671472     0.82700
N2352       N  0.62808729  0.80674566  0.05592126    -0.79800
O2353       O  0.55138535  0.96011018  0.33832655    -0.75300
O2354       O  0.54941062  0.95856891  0.39006337    -0.54200
C2355       C  0.55759971  0.95422758  0.35944859     0.78400
O2356       O  0.54804692  0.58748890  0.37973221    -0.59900
O2357       O  0.50177195  0.55940234  0.36042945    -0.53000
C2358       C  0.52894501  0.58463145  0.36582820     0.70400
O2359       O  0.59043257  0.56427584  0.42733842    -0.74500
O2360       O  0.57296335  0.01761599  0.43959479    -0.55100
C2361       C  0.59421667  0.54780406  0.43706555     0.76400
O2362       O  0.50920719  0.98462083  0.29503602    -0.59600
O2363       O  0.98277841  0.50258454  0.30892539    -0.52800
C2364       C  0.99474861  0.99381532  0.28915530     0.73000
Zr2365     Zr  0.52258559  0.97862915  0.33780508     2.54700
O2366       O  0.57191056  0.00917879  0.30627376    -0.80200
O2367       O  0.00611936  0.93258356  0.29049662    -0.93600
Zr2368     Zr  0.55109039  0.55558257  0.40292403     2.64700
O2369       O  0.60072871  0.58558299  0.37174334    -0.98600
O2370       O  0.56374601  0.60146425  0.44583423    -0.80600
O2371       O  0.54901213  0.01016336  0.38456359    -0.84000
O2372       O  0.52649523  0.52478917  0.35494339    -2.18700
O2373       O  0.90503907  0.92118877  0.36214589    -0.67400
O2374       O  0.92167835  0.96758385  0.35343914    -0.51900
C2375       C  0.90146879  0.93798501  0.35278435     0.71400
O2376       O  0.98528502  0.49855647  0.49665711    -0.60300
O2377       O  0.51339852  0.98162562  0.48195869    -0.52300
C2378       C  0.98897532  0.99111244  0.00770838     0.73200
O2379       O  0.94649386  0.52685935  0.45235196    -0.71700
O2380       O  0.94678868  0.52675656  0.40049129    -0.50400
C2381       C  0.94009338  0.53253929  0.43124071     0.74600
O2382       O  0.94792351  0.89720186  0.40642214    -0.67000
O2383       O  0.99368083  0.92538540  0.42715866    -0.54200
C2384       C  0.96677158  0.90015584  0.42067119     0.73000
Zr2385     Zr  0.94462181  0.92965421  0.38568694     2.77500
O2386       O  0.89756128  0.89857777  0.41952545    -0.97800
O2387       O  0.93093546  0.88551080  0.34002863    -0.78600
Zr2388     Zr  0.97189728  0.50514596  0.45381485     2.70100
O2389       O  0.91813092  0.96647818  0.48012487    -0.79800
O2390       O  0.48402690  0.54719889  0.50505261    -0.98900
Zr2391     Zr  0.52080085  0.97853670  0.42411618     2.21500
Zr2392     Zr  0.97493775  0.50644841  0.36687059     2.11100
O2393       O  0.94415853  0.97398921  0.40949474    -2.47600
O2394       O  0.96938283  0.95944506  0.43376075    -0.79600
O2395       O  0.97196768  0.96116434  0.34647871    -0.71800
O2396       O  0.52396859  0.52448770  0.44290127    -2.32800
O2397       O  0.99628418  0.94638034  0.37187056    -2.29000
O2398       O  0.49950318  0.53897084  0.41811927    -0.73600
H2399       H  0.53654058  0.53712074  0.33856486     0.78400
H2400       H  0.53450876  0.53611042  0.46208327     0.79500
H2401       H  0.92332819  0.96781161  0.41435021     0.81700
H2402       H  0.99645032  0.92836943  0.36382515     0.79300
H2403       H  0.57892797  0.61954231  0.43506886     0.42400
H2404       H  0.50083913  0.56693506  0.49739768     0.41300
H2405       H  0.91874302  0.97425441  0.50383711     0.41000
H2406       H  0.89069568  0.91213907  0.43041811     0.39000
H2407       H  0.93846759  0.87505763  0.34384935     0.42100
H2408       H  0.99284989  0.91471635  0.30161905     0.36900
H2409       H  0.56763439  0.99911738  0.28340253     0.43000
H2410       H  0.59666328  0.57539216  0.34885587     0.39400
H2411       H  0.88225892  0.88135485  0.40421429     0.44300
H2412       H  0.52139735  0.93200184  0.28408777     0.43000
H2413       H  0.60535227  0.60635576  0.37472022     0.43200
H2414       H  0.96630954  0.55455873  0.00286604     0.43500
O2415       O  0.52878946  0.94094765  0.09160229    -0.75300
O2416       O  0.52875984  0.94276995  0.14401954    -0.54200
C2417       C  0.53433971  0.93497934  0.11322857     0.78400
O2418       O  0.55956607  0.58751957  0.12646853    -0.59900
O2419       O  0.51367027  0.56800921  0.11192447    -0.53000
C2420       C  0.54235371  0.58962100  0.11536145     0.70400
O2421       O  0.58667880  0.54799869  0.17240778    -0.74500
O2422       O  0.55930403  0.00052337  0.19239317    -0.55100
C2423       C  0.58475816  0.52939415  0.18535950     0.76400
O2424       O  0.49949957  0.97808065  0.04738628    -0.59600
O2425       O  0.98060271  0.50482074  0.06072360    -0.52800
C2426       C  0.98900968  0.99140869  0.04120549     0.73000
Zr2427     Zr  0.50723344  0.96671394  0.09049063     2.54700
O2428       O  0.55139517  0.98069575  0.04977077    -0.80200
O2429       O  0.97408330  0.91417881  0.05536815    -0.93600
Zr2430     Zr  0.55389266  0.54917079  0.14784811     2.64700
O2431       O  0.59892597  0.56228254  0.10871938    -0.98600
O2432       O  0.58362103  0.60024079  0.18337444    -0.80600
O2433       O  0.53917192  0.99692760  0.13319715    -0.84000
O2434       O  0.52377583  0.51974125  0.10367520    -2.18700
O2435       O  0.89979203  0.93927130  0.12609520    -0.67400
O2436       O  0.92593746  0.98543744  0.10994414    -0.51900
C2437       C  0.90172300  0.95786572  0.11324200     0.71400
O2438       O  0.98584406  0.50748296  0.24979877    -0.60300
O2439       O  0.50312718  0.98015741  0.23602106    -0.52300
C2440       C  0.99422092  0.99430547  0.25668645     0.73200
O2441       O  0.96044790  0.54757052  0.20490451    -0.71700
O2442       O  0.95783191  0.54298084  0.15241995    -0.50400
C2443       C  0.95384615  0.55235528  0.18314418     0.74600
O2444       O  0.92691929  0.90091040  0.17224201    -0.67000
O2445       O  0.97303660  0.92051985  0.18628152    -0.54200
C2446       C  0.94434910  0.89890991  0.18297116     0.73000
Zr2447     Zr  0.93280769  0.93904181  0.15076189     2.77500
O2448       O  0.88898978  0.92589693  0.19199475    -0.97800
O2449       O  0.90207146  0.88845225  0.11479814    -0.78600
Zr2450     Zr  0.97986883  0.52000245  0.20641901     2.70100
O2451       O  0.93528089  0.00724392  0.25138088    -0.79800
O2452       O  0.51199298  0.57281051  0.24364282    -0.98900
Zr2453     Zr  0.50838119  0.97178449  0.17766556     2.21500
Zr2454     Zr  0.97780035  0.51375793  0.11896558     2.11100
O2455       O  0.94731450  0.99093888  0.16821624    -2.47600
O2456       O  0.96340864  0.96902217  0.19441870    -0.79600
O2457       O  0.96187756  0.96291779  0.10540817    -0.71800
O2458       O  0.52462107  0.52471689  0.19272117    -2.32800
O2459       O  0.97776873  0.94084735  0.13140459    -2.29000
O2460       O  0.50868212  0.54696181  0.16620050    -0.73600
H2461       H  0.53506145  0.53040570  0.08579221     0.78400
H2462       H  0.53681472  0.53565448  0.21065118     0.79500
H2463       H  0.92914707  0.99043382  0.17454697     0.81700
H2464       H  0.97256533  0.91999787  0.12532062     0.79300
H2465       H  0.57128883  0.59738626  0.20479336     0.42400
H2466       H  0.49757713  0.57654457  0.25958379     0.41300
H2467       H  0.91785850  0.98719197  0.24033405     0.41000
H2468       H  0.88333779  0.93936064  0.19198665     0.39000
H2469       H  0.91519272  0.89060754  0.09383400     0.42100
H2470       H  0.97461724  0.90016311  0.06350293     0.36900
H2471       H  0.56880553  0.00090335  0.06064804     0.43000
H2472       H  0.61662351  0.57979345  0.12122388     0.39400
H2473       H  0.87192192  0.90440589  0.18259615     0.44300
H2474       H  0.45845526  0.91431835  0.05269061     0.43000
H2475       H  0.59974771  0.54431231  0.10426330     0.43200
H2476       H  0.00130982  0.57001835  0.26206200     0.43500
C2477       C  0.62222938  0.76081279  0.06086899     0.01300
C2478       C  0.63444908  0.74343900  0.04779751     0.04100
C2479       C  0.62092674  0.71595501  0.05815710    -0.11900
C2480       C  0.59358812  0.70413124  0.07938346     0.23400
C2481       C  0.57936157  0.71935246  0.08981680    -0.12500
C2482       C  0.59372138  0.74790379  0.08102716     0.04800
C2483       C  0.57926564  0.67483696  0.08950839     0.27200
C2484       C  0.56267753  0.64595831  0.06784407    -0.13200
C2485       C  0.55219316  0.61830568  0.07557141     0.05300
C2486       C  0.55625880  0.61915218  0.10607871    -0.09200
C2487       C  0.57177045  0.64806667  0.12838455     0.06200
C2488       C  0.58368138  0.67595765  0.11985719    -0.13500
Br2489     Br  0.54028004  0.70096744  0.11659255    -0.05600
Br2490     Br  0.67930778  0.75502224  0.51630152     0.00000
Br2491     Br  0.53425364  0.57984827  0.04324753     0.00500
Br2492     Br  0.60577835  0.71572106  0.14978909    -0.03900
Br2493     Br  0.57377997  0.76858010  0.09794199     0.00600
Br2494     Br  0.64028082  0.69478551  0.04394040    -0.03200
Br2495     Br  0.55398237  0.64445423  0.02777630    -0.04100
Br2496     Br  0.57560335  0.64969572  0.17119319    -0.00100
C2497       C  0.72182773  0.86381416  0.06651102     0.01300
C2498       C  0.74548074  0.88737771  0.04881706     0.04100
C2499       C  0.77635352  0.90470712  0.05431571    -0.10700
C2500       C  0.78344912  0.89879661  0.07767382     0.23400
C2501       C  0.75982783  0.87627928  0.09620210    -0.12500
C2502       C  0.72904015  0.85971705  0.09151849     0.04800
C2503       C  0.81564875  0.91683976  0.08380423     0.27200
C2504       C  0.83327803  0.90583786  0.06594728    -0.13200
C2505       C  0.86234452  0.92043337  0.07475317     0.05300
C2506       C  0.87376062  0.94605550  0.10121037    -0.09200
C2507       C  0.85680901  0.95802761  0.11808170     0.06200
C2508       C  0.82762098  0.94331824  0.10944725    -0.13500
Br2509     Br  0.76967865  0.86792562  0.12795898    -0.05600
Br2510     Br  0.74251128  0.87582222  0.50330141     0.00000
Br2511     Br  0.88631581  0.90489730  0.05137816     0.00500
Br2512     Br  0.80319296  0.95814091  0.13386060    -0.03900
Br2513     Br  0.69693000  0.83467810  0.12235401     0.00600
Br2514     Br  0.81680157  0.92255266  0.51524657    -0.03200
Br2515     Br  0.81674064  0.86968277  0.03074660    -0.04100
Br2516     Br  0.87250998  0.99290248  0.15453093    -0.00100
C2517       C  0.54858846  0.91827322  0.10169856     0.01300
C2518       C  0.53414847  0.88975706  0.11081333     0.04100
C2519       C  0.54913902  0.87544862  0.10241680    -0.11900
C2520       C  0.57789130  0.88885302  0.08355174     0.23400
C2521       C  0.59136317  0.91602055  0.07245525    -0.12500
C2522       C  0.57696705  0.93098609  0.08178999     0.04800
C2523       C  0.59496907  0.87551929  0.07662654     0.27200
C2524       C  0.61588521  0.88682314  0.09795091    -0.13200
C2525       C  0.63271351  0.87478627  0.09138204     0.05300
C2526       C  0.62947510  0.85226835  0.06269580    -0.09200
C2527       C  0.60890591  0.84134427  0.04107814     0.06200
C2528       C  0.59141537  0.85278380  0.04823013    -0.13500
Br2529     Br  0.63001839  0.93290626  0.04500847    -0.05600
Br2530     Br  0.49300558  0.86910830  0.13273392     0.00000
Br2531     Br  0.65799011  0.88739190  0.12332143     0.00500
Br2532     Br  0.56256343  0.83739016  0.01928212    -0.03900
Br2533     Br  0.59722789  0.96969654  0.06844773     0.00600
Br2534     Br  0.53067381  0.83779194  0.11701111    -0.03200
Br2535     Br  0.62134385  0.91880647  0.13626706    -0.04100
Br2536     Br  0.60497211  0.81105149  0.00149981    -0.00100
C2537       C  0.53967540  0.61234346  0.35457999     0.01300
C2538       C  0.56758523  0.62683921  0.33431391     0.04100
C2539       C  0.58024705  0.65542595  0.32686158    -0.11900
C2540       C  0.56428072  0.66894547  0.33819119     0.23400
C2541       C  0.53533882  0.65348655  0.35660781    -0.12500
C2542       C  0.52301314  0.62516346  0.36477355     0.04800
C2543       C  0.57944897  0.70053463  0.33256773     0.27200
C2544       C  0.59771767  0.72726628  0.35577677    -0.13200
C2545       C  0.61654765  0.75723616  0.34856310     0.05300
C2546       C  0.61764346  0.76055925  0.31786783    -0.09200
C2547       C  0.59858728  0.73400640  0.29500177     0.06200
C2548       C  0.57905222  0.70400861  0.30258723    -0.13500
Br2549     Br  0.51354244  0.67207478  0.37181953    -0.05600
Br2550     Br  0.58760472  0.60654886  0.31498299     0.00000
Br2551     Br  0.64138999  0.79379698  0.38063317     0.00500
Br2552     Br  0.55253104  0.66750005  0.27169581    -0.03900
Br2553     Br  0.48397437  0.60462368  0.39085718     0.00600
Br2554     Br  0.62039760  0.67703552  0.30253105    -0.03200
Br2555     Br  0.59812696  0.72262350  0.39691568    -0.04100
Br2556     Br  0.60132273  0.73846974  0.25245254    -0.00100
C2557       C  0.72355007  0.85473183  0.30631323     0.01300
C2558       C  0.73832247  0.84056507  0.28779326     0.04100
C2559       C  0.76884262  0.85488692  0.29190375    -0.11900
C2560       C  0.78543853  0.88446289  0.31266695     0.23400
C2561       C  0.77160482  0.89982502  0.32927028    -0.12500
C2562       C  0.74048472  0.88471774  0.32688936     0.04800
C2563       C  0.81531713  0.89697539  0.32143684     0.27200
C2564       C  0.81555318  0.89065644  0.34948700    -0.13200
C2565       C  0.84365113  0.90412442  0.35988531     0.05300
C2566       C  0.87170482  0.92238062  0.34108767    -0.09200
C2567       C  0.87117430  0.92687931  0.31178131     0.06200
C2568       C  0.84313886  0.91534907  0.30269621    -0.13500
Br2569     Br  0.79491568  0.94069445  0.35730778    -0.05600
Br2570     Br  0.71725457  0.80193865  0.25609843     0.00000
Br2571     Br  0.84305863  0.89894072  0.40105195     0.00500
Br2572     Br  0.84294695  0.92563366  0.26539228    -0.03900
Br2573     Br  0.72106077  0.90439259  0.35454907     0.00600
Br2574     Br  0.78710681  0.83284031  0.27134126    -0.03200
Br2575     Br  0.77702660  0.86376912  0.37395078    -0.04100
Br2576     Br  0.90845226  0.94688804  0.28294072    -0.00100
C2577       C  0.63730980  0.85695055  0.31224884     0.01300
C2578       C  0.64904565  0.87752089  0.29161891     0.04100
C2579       C  0.63840868  0.89568190  0.29742233    -0.11900
C2580       C  0.61624467  0.89335728  0.32377980     0.23400
C2581       C  0.60478360  0.87318298  0.34452184    -0.12500
C2582       C  0.61599909  0.85577740  0.33944637     0.04800
C2583       C  0.60398004  0.91129041  0.32952883     0.27200
C2584       C  0.61672049  0.94039532  0.35156347    -0.13200
C2585       C  0.60237439  0.95537082  0.36016734     0.05300
C2586       C  0.57474575  0.94065015  0.34752347    -0.09200
C2587       C  0.56265988  0.91195239  0.32463033     0.06200
C2588       C  0.57747919  0.89748967  0.31545765    -0.13500
Br2589     Br  0.57316058  0.86903093  0.37964281    -0.05600
Br2590     Br  0.67954835  0.88100574  0.25536413     0.00000
Br2591     Br  0.62086179  0.99622602  0.38870189     0.00500
Br2592     Br  0.56047952  0.85762504  0.28511682    -0.03900
Br2593     Br  0.60437272  0.83319546  0.37198480     0.00600
Br2594     Br  0.65347767  0.92324895  0.26903444    -0.03200
Br2595     Br  0.65279666  0.95868632  0.37112908    -0.04100
Br2596     Br  0.52440262  0.89061957  0.30768494    -0.00100
C2597       C  0.86026753  0.63452056  0.22534765     0.01300
C2598       C  0.88031644  0.64717764  0.24841025     0.04100
C2599       C  0.89671363  0.63521937  0.24498957    -0.11900
C2600       C  0.89349017  0.61128933  0.21815098     0.23400
C2601       C  0.87283180  0.59810672  0.19570673    -0.12500
C2602       C  0.85666553  0.61011162  0.19886253     0.04800
C2603       C  0.91137234  0.59928346  0.21304634     0.27200
C2604       C  0.93869562  0.61096366  0.19174848    -0.13200
C2605       C  0.95308610  0.59603109  0.18248087     0.05300
C2606       C  0.93998848  0.56930211  0.19444758    -0.09200
C2607       C  0.91304129  0.55830652  0.21667380     0.06200
C2608       C  0.89864726  0.57320778  0.22569705    -0.13500
Br2609     Br  0.86619045  0.56298306  0.16094715    -0.05600
Br2610     Br  0.88508548  0.68055840  0.28477595     0.00000
Br2611     Br  0.99108968  0.61284939  0.15408193     0.00500
Br2612     Br  0.86010323  0.55672049  0.25339539    -0.03900
Br2613     Br  0.83179572  0.59462627  0.16510703     0.00600
Br2614     Br  0.92242920  0.65053954  0.27758289    -0.03200
Br2615     Br  0.95536089  0.64643261  0.17403678    -0.04100
Br2616     Br  0.89423436  0.52161998  0.23329971    -0.00100
C2617       C  0.93086561  0.86914430  0.19095905     0.01300
C2618       C  0.93370462  0.86892862  0.22149182     0.04100
C2619       C  0.92354899  0.84095919  0.22801380    -0.11900
C2620       C  0.90908815  0.81294707  0.20465006     0.23400
C2621       C  0.90583679  0.81292973  0.17422691    -0.12500
C2622       C  0.91696049  0.84110949  0.16725970     0.04800
C2623       C  0.89533531  0.78313152  0.21289533     0.27200
C2624       C  0.90870083  0.76708811  0.19844648    -0.13200
C2625       C  0.89319924  0.73671176  0.20292911     0.05300
C2626       C  0.86555001  0.72359082  0.22405212    -0.09200
C2627       C  0.85440190  0.74141032  0.24151677     0.06200
C2628       C  0.86830922  0.77046672  0.23462623    -0.13500
Br2629     Br  0.88578770  0.77424624  0.14222979    -0.05600
Br2630     Br  0.94898225  0.90617098  0.25538808     0.00000
Br2631     Br  0.90914922  0.71296232  0.17795941     0.00500
Br2632     Br  0.84950477  0.79218352  0.25379735    -0.03900
Br2633     Br  0.91386603  0.84107502  0.12483315     0.00600
Br2634     Br  0.92885981  0.84066798  0.26912329    -0.03200
Br2635     Br  0.94775555  0.78648017  0.17174280    -0.04100
Br2636     Br  0.82117052  0.72684924  0.27602462    -0.00100
C2637       C  0.76704315  0.61930713  0.21790927     0.01300
C2638       C  0.74541435  0.60129053  0.24130150     0.04100
C2639       C  0.71385948  0.58220135  0.23810099    -0.11900
C2640       C  0.70409260  0.58085701  0.21135199     0.23400
C2641       C  0.72571196  0.59755325  0.18710142    -0.12500
C2642       C  0.75725877  0.61688252  0.19037423     0.04800
C2643       C  0.67130382  0.56521956  0.21028261     0.27200
C2644       C  0.65268275  0.53394904  0.19372034    -0.13200
C2645       C  0.62344692  0.52140837  0.18701086     0.05300
C2646       C  0.61312939  0.54050837  0.19660826    -0.09200
C2647       C  0.63128704  0.57125664  0.21525679     0.06200
C2648       C  0.66008637  0.58331434  0.22247409    -0.13500
Br2649     Br  0.71178158  0.59469306  0.15004397    -0.05600
Br2650     Br  0.75873411  0.60408276  0.27877604     0.00000
Br2651     Br  0.60015399  0.97890537  0.16439474     0.00500
Br2652     Br  0.68514580  0.62527591  0.24800041    -0.03900
Br2653     Br  0.78686070  0.63926912  0.15671888     0.00600
Br2654     Br  0.68386553  0.55912895  0.27102690    -0.03200
Br2655     Br  0.66814623  0.50911229  0.17918258    -0.04100
Br2656     Br  0.61752075  0.59756996  0.23077016    -0.00100
C2657       C  0.86421490  0.63209343  0.47386757     0.01300
C2658       C  0.85575266  0.61616433  0.49814281     0.04100
C2659       C  0.86839087  0.60051439  0.49543629    -0.11900
C2660       C  0.88946342  0.60095067  0.46861216     0.23400
C2661       C  0.89914750  0.61818775  0.44529088    -0.12500
C2662       C  0.88619168  0.63332539  0.44751910     0.04800
C2663       C  0.89984744  0.58142920  0.46314801     0.27200
C2664       C  0.92694920  0.59408590  0.47525269    -0.13200
C2665       C  0.93976852  0.57759911  0.46525521     0.05300
C2666       C  0.92510838  0.54821058  0.44355222    -0.09200
C2667       C  0.89734913  0.53504097  0.43233024     0.06200
C2668       C  0.88463946  0.55165729  0.44230560    -0.13500
Br2669     Br  0.92958064  0.62026563  0.40969712    -0.05600
Br2670     Br  0.88070496  0.66340399  0.03176825     0.00000
Br2671     Br  0.97958007  0.59748295  0.47784742     0.00500
Br2672     Br  0.84438307  0.53824652  0.99663664    -0.03900
Br2673     Br  0.89673874  0.65309360  0.41266860     0.00600
Br2674     Br  0.85684945  0.57828149  0.52814598    -0.03200
Br2675     Br  0.94760149  0.63501930  0.50360129    -0.04100
Br2676     Br  0.87608190  0.50030782  0.97358236    -0.00100
C2677       C  0.87599525  0.72330605  0.46534547     0.01300
C2678       C  0.87010181  0.72843042  0.44011609     0.04100
C2679       C  0.88728591  0.75891998  0.43500662    -0.11900
C2680       C  0.91132698  0.78409558  0.45400909     0.23400
C2681       C  0.91836892  0.77898599  0.47809667    -0.12500
C2682       C  0.90084520  0.74851625  0.48370263     0.04800
C2683       C  0.92857108  0.81604541  0.44886808     0.27200
C2684       C  0.95489381  0.82770058  0.42615886    -0.13200
C2685       C  0.96880551  0.85642537  0.41813915     0.05300
C2686       C  0.95544192  0.87255937  0.43183626    -0.09200
C2687       C  0.92959573  0.86121334  0.45523564     0.06200
C2688       C  0.91681012  0.83347668  0.46453741    -0.13500
Br2689     Br  0.95122039  0.81419090  0.50409423    -0.05600
Br2690     Br  0.84012832  0.69360385  0.41080698     0.00000
Br2691     Br  0.00472221  0.87243684  0.38695349     0.00500
Br2692     Br  0.85648077  0.79739655  0.97745215    -0.03900
Br2693     Br  0.86620704  0.74030553  0.04536853     0.00600
Br2694     Br  0.87737773  0.76651382  0.40257230    -0.03200
Br2695     Br  0.97079521  0.80346491  0.40514638    -0.04100
Br2696     Br  0.88881416  0.86804948  0.96688253    -0.00100
C2697       C  0.77246560  0.62759979  0.48207112     0.01300
C2698       C  0.75864872  0.64202062  0.50302817     0.04100
C2699       C  0.72894698  0.63052817  0.49899133    -0.11900
C2700       C  0.71143387  0.60222578  0.47677642     0.23400
C2701       C  0.72353573  0.58522031  0.45953264    -0.12500
C2702       C  0.75439121  0.59839750  0.46103952     0.04800
C2703       C  0.68153052  0.59126731  0.46903540     0.27200
C2704       C  0.65378161  0.57306318  0.48800526    -0.13200
C2705       C  0.62532048  0.55996491  0.47833489     0.05300
C2706       C  0.62430748  0.56400120  0.44892168    -0.09200
C2707       C  0.65232636  0.58264907  0.43019229     0.06200
C2708       C  0.68070913  0.59636573  0.44037521    -0.13500
Br2709     Br  0.69792129  0.54441318  0.43259274    -0.05600
Br2710     Br  0.77993296  0.67646302  0.53837026     0.00000
Br2711     Br  0.57946465  0.54540493  0.01595340     0.00500
Br2712     Br  0.71877220  0.62087441  0.41402866    -0.03900
Br2713     Br  0.77191123  0.57724266  0.43232433     0.00600
Br2714     Br  0.71345799  0.65481759  0.52206228    -0.03200
Br2715     Br  0.64550837  0.57801501  0.04312897    -0.04100
Br2716     Br  0.65243721  0.58776890  0.38912375    -0.00100
C2717       C  0.85021016  0.64745300  0.47584926     0.80200
N2718       N  0.81907303  0.63117369  0.47940528    -0.78100
C2719       C  0.80629743  0.64514665  0.47970311     0.82600
N2720       N  0.82493724  0.67534445  0.47596151    -0.78100
C2721       C  0.85603766  0.69160412  0.47222080     0.82700
N2722       N  0.86852853  0.67757323  0.47225936    -0.79800
C2723       C  0.85174040  0.64599279  0.73472455     0.80200
N2724       N  0.82146209  0.62732885  0.73069628    -0.78100
C2725       C  0.80788141  0.63988204  0.72936675     0.82600
N2726       N  0.82486085  0.67125786  0.73148234    -0.78100
C2727       C  0.85522239  0.69040193  0.73599976     0.82700
N2728       N  0.86853509  0.67748193  0.73749042    -0.79800
C2729       C  0.64571805  0.83065259  0.80014251     0.80200
N2730       N  0.62907176  0.80005115  0.80170762    -0.78100
C2731       C  0.64335241  0.78644525  0.79660796     0.82600
N2732       N  0.67459917  0.80410002  0.79083933    -0.78100
C2733       C  0.69180828  0.83489847  0.78949956     0.82700
N2734       N  0.67698465  0.84795408  0.79416593    -0.79800
C2735       C  0.65455986  0.83513764  0.55720370     0.80200
N2736       N  0.68532901  0.85351527  0.55878786    -0.78100
C2737       C  0.69885702  0.84107813  0.56072137     0.82600
N2738       N  0.68145094  0.81022471  0.56136085    -0.78100
C2739       C  0.65070109  0.79149271  0.55933196     0.82700
N2740       N  0.63739178  0.80415727  0.55729517    -0.79800
O2741       O  0.54550635  0.95132409  0.84893112    -0.75300
O2742       O  0.54288805  0.95425725  0.90251375    -0.54200
C2743       C  0.55036931  0.94654300  0.87226160     0.78400
O2744       O  0.54885079  0.58405993  0.87658143    -0.59900
O2745       O  0.50385980  0.55561775  0.85431531    -0.53000
C2746       C  0.53072117  0.58089364  0.86096562     0.70400
O2747       O  0.58612259  0.56005544  0.92868834    -0.74500
O2748       O  0.56615511  0.01543400  0.94859231    -0.55100
C2749       C  0.58783372  0.54393826  0.94162190     0.76400
O2750       O  0.51490100  0.97983521  0.79410263    -0.59600
O2751       O  0.98602856  0.49724187  0.80420081    -0.52800
C2752       C  0.00262136  0.98958118  0.78493281     0.73000
Zr2753     Zr  0.52226268  0.97361613  0.84174106     2.54700
O2754       O  0.57513063  0.00690602  0.81800172    -0.80200
O2755       O  0.00895245  0.92704364  0.79479213    -0.93600
Zr2756     Zr  0.54877369  0.55168158  0.90188456     2.64700
O2757       O  0.59852213  0.57961207  0.86982232    -0.98600
O2758       O  0.56311601  0.59887331  0.94364354    -0.80600
O2759       O  0.54676363  0.00647418  0.88946040    -0.84000
O2760       O  0.52552779  0.51877059  0.85343868    -2.18700
O2761       O  0.90266849  0.92025650  0.86136211    -0.67400
O2762       O  0.92344852  0.96513527  0.84554074    -0.51900
C2763       C  0.90129784  0.93644353  0.84791149     0.71400
O2764       O  0.97642175  0.50053722  0.99916472    -0.60300
O2765       O  0.50408931  0.98238031  0.98856290    -0.52300
C2766       C  0.99884180  0.98835486  0.50163463     0.73200
O2767       O  0.94161927  0.52696860  0.94487071    -0.71700
O2768       O  0.94253002  0.52107880  0.89099176    -0.50400
C2769       C  0.93473624  0.52912159  0.92093859     0.74600
O2770       O  0.94065532  0.89629812  0.91488771    -0.67000
O2771       O  0.98347608  0.92497106  0.94102896    -0.54200
C2772       C  0.95726437  0.89949151  0.93285054     0.73000
Zr2773     Zr  0.94014060  0.92805503  0.88877900     2.77500
O2774       O  0.89189656  0.90314159  0.92343208    -0.97800
O2775       O  0.92344798  0.87993837  0.84791830    -0.78600
Zr2776     Zr  0.96736156  0.50710695  0.95251355     2.70100
O2777       O  0.91395151  0.97412972  0.98124021    -0.79800
O2778       O  0.48585358  0.55852789  0.99294600    -0.98900
Zr2779     Zr  0.51499614  0.97684702  0.93052957     2.21500
Zr2780     Zr  0.97402622  0.50307470  0.86261114     2.11100
O2781       O  0.94264824  0.97418784  0.90665113    -2.47600
O2782       O  0.96322055  0.95993505  0.93766537    -0.79600
O2783       O  0.97103397  0.95658864  0.84677064    -0.71800
O2784       O  0.51895473  0.52365930  0.94431590    -2.32800
O2785       O  0.99108955  0.94273446  0.87860446    -2.29000
O2786       O  0.49804547  0.53746358  0.91265506    -0.73600
H2787       H  0.53688218  0.53036102  0.83626650     0.78400
H2788       H  0.52908138  0.53601311  0.96371900     0.79500
H2789       H  0.92221341  0.96880220  0.90972950     0.81700
H2790       H  0.98999495  0.92396643  0.87284828     0.79300
H2791       H  0.55527515  0.59179318  0.96437323     0.42400
H2792       H  0.49430650  0.57377815  0.97946005     0.41300
H2793       H  0.91575588  0.98279184  0.00473502     0.41000
H2794       H  0.88709192  0.91851261  0.93134586     0.39000
H2795       H  0.90776208  0.86285202  0.85989537     0.42100
H2796       H  0.99555956  0.90912776  0.80585789     0.36900
H2797       H  0.57827241  0.99223190  0.80051747     0.43000
H2798       H  0.59366773  0.57235841  0.84721767     0.39400
H2799       H  0.87627165  0.88557301  0.90858351     0.44300
H2800       H  0.52824397  0.92968452  0.79019326     0.43000
H2801       H  0.60595203  0.60179273  0.87584541     0.43200
H2802       H  0.96500778  0.54669895  0.50856744     0.43500
O2803       O  0.53828425  0.93746721  0.58699988    -0.75300
O2804       O  0.53905051  0.93981835  0.63942589    -0.54200
C2805       C  0.54420474  0.93178413  0.60861027     0.78400
O2806       O  0.56876773  0.58226057  0.62080026    -0.59900
O2807       O  0.52259384  0.56258935  0.60677587    -0.53000
C2808       C  0.55124352  0.58425027  0.61009730     0.70400
O2809       O  0.59725477  0.54233999  0.66435701    -0.74500
O2810       O  0.57095262  0.99901085  0.68585767    -0.55100
C2811       C  0.59538848  0.52396500  0.67765190     0.76400
O2812       O  0.50967125  0.97488930  0.54117176    -0.59600
O2813       O  0.99168006  0.50267700  0.55605654    -0.52800
C2814       C  0.00007253  0.98808953  0.53441411     0.73000
Zr2815     Zr  0.51741202  0.96367962  0.58496375     2.54700
O2816       O  0.56299201  0.98003375  0.54576518    -0.80200
O2817       O  0.98310654  0.91016012  0.54939357    -0.93600
Zr2818     Zr  0.56375495  0.54372456  0.64129391     2.64700
O2819       O  0.60894345  0.55943696  0.60165700    -0.98600
O2820       O  0.59232938  0.59416423  0.67823009    -0.80600
O2821       O  0.54896034  0.99384625  0.62812046    -0.84000
O2822       O  0.53325711  0.51407412  0.59738108    -2.18700
O2823       O  0.91010208  0.93665494  0.62110422    -0.67400
O2824       O  0.93655000  0.98243193  0.60407608    -0.51900
C2825       C  0.91202085  0.95520608  0.60807077     0.71400
O2826       O  0.99465165  0.50447417  0.74530255    -0.60300
O2827       O  0.51368886  0.97709369  0.73194138    -0.52300
C2828       C  0.00463910  0.99072063  0.75141432     0.73200
O2829       O  0.96810710  0.54269075  0.70010892    -0.71700
O2830       O  0.96913588  0.54187818  0.64775386    -0.50400
C2831       C  0.96277352  0.54888471  0.67851494     0.74600
O2832       O  0.93679897  0.89729718  0.66709581    -0.67000
O2833       O  0.98251967  0.91645542  0.68163591    -0.54200
C2834       C  0.95361555  0.89511205  0.67872806     0.73000
Zr2835     Zr  0.94335690  0.93534668  0.64451583     2.77500
O2836       O  0.89966752  0.92144569  0.68593474    -0.97800
O2837       O  0.91320796  0.88446312  0.60876349    -0.78600
Zr2838     Zr  0.99059185  0.51794264  0.70155537     2.70100
O2839       O  0.94691658  0.00487378  0.74557965    -0.79800
O2840       O  0.52078879  0.56919986  0.73629915    -0.98900
Zr2841     Zr  0.51875392  0.96883774  0.67305622     2.21500
Zr2842     Zr  0.98900112  0.51223077  0.61445264     2.11100
O2843       O  0.95815903  0.98731706  0.66173709    -2.47600
O2844       O  0.97400536  0.96538240  0.68824197    -0.79600
O2845       O  0.97200513  0.95933569  0.59911906    -0.71800
O2846       O  0.53471853  0.51972006  0.68668668    -2.32800
O2847       O  0.98833080  0.93721575  0.62544882    -2.29000
O2848       O  0.51871923  0.54171223  0.65982826    -0.73600
H2849       H  0.54432219  0.52458421  0.57942907     0.78400
H2850       H  0.54705983  0.53083698  0.70448557     0.79500
H2851       H  0.93977150  0.98666045  0.66822407     0.81700
H2852       H  0.98292113  0.91625048  0.61940075     0.79300
H2853       H  0.57831601  0.59142719  0.69857542     0.42400
H2854       H  0.52665543  0.58342685  0.72276596     0.41300
H2855       H  0.92930335  0.98464861  0.73498914     0.41000
H2856       H  0.89174837  0.93229701  0.68403977     0.39000
H2857       H  0.92763270  0.88537078  0.58913170     0.42100
H2858       H  0.98642430  0.89668236  0.55448597     0.36900
H2859       H  0.57962710  0.00065885  0.55709060     0.43000
H2860       H  0.60999416  0.54141203  0.59497092     0.39400
H2861       H  0.88370699  0.89889868  0.67792547     0.44300
H2862       H  0.46828639  0.90978314  0.54835329     0.43000
H2863       H  0.60298176  0.55916138  0.58251241     0.43200
H2864       H  0.00926223  0.57028844  0.75477550     0.43500
C2865       C  0.63174980  0.75841420  0.56250679     0.01300
C2866       C  0.64342676  0.74059113  0.54796334     0.04100
C2867       C  0.62841841  0.71151062  0.55577839    -0.11900
C2868       C  0.59974143  0.69827347  0.57493035     0.23400
C2869       C  0.58611249  0.71416374  0.58603611    -0.12500
C2870       C  0.60292975  0.74501962  0.58186246     0.04800
C2871       C  0.58506685  0.66856162  0.58471674     0.27200
C2872       C  0.57242866  0.64014370  0.56157894    -0.13200
C2873       C  0.56241234  0.61278355  0.56963018     0.05300
C2874       C  0.56456505  0.61360949  0.60101375    -0.09200
C2875       C  0.57660502  0.64185257  0.62443303     0.06200
C2876       C  0.58636303  0.66919859  0.61645192    -0.13500
Br2877     Br  0.54453200  0.69371551  0.60731956    -0.05600
Br2878     Br  0.66836110  0.75572908  0.01380663     0.00000
Br2879     Br  0.54734185  0.57455866  0.53702196     0.00500
Br2880     Br  0.60114898  0.70737849  0.64921740    -0.03900
Br2881     Br  0.58746938  0.76931268  0.60618844     0.00600
Br2882     Br  0.64790035  0.69043508  0.54127689    -0.03200
Br2883     Br  0.56899601  0.63883486  0.51879860    -0.04100
Br2884     Br  0.57878351  0.64291137  0.66778039    -0.00100
C2885       C  0.73159348  0.86170021  0.56567032     0.01300
C2886       C  0.75414822  0.87991752  0.54275537     0.04100
C2887       C  0.78543832  0.89971673  0.54772303    -0.10700
C2888       C  0.79402818  0.90183301  0.57590933     0.23400
C2889       C  0.77146318  0.88430425  0.59919978    -0.12500
C2890       C  0.74032935  0.86370311  0.59379584     0.04800
C2891       C  0.82669608  0.91851747  0.57924953     0.27200
C2892       C  0.83962804  0.90197024  0.56625924    -0.13200
C2893       C  0.86797508  0.91445396  0.57513126     0.05300
C2894       C  0.88383396  0.94387342  0.59646950    -0.09200
C2895       C  0.87200651  0.96158699  0.60734046     0.06200
C2896       C  0.84333630  0.94881922  0.59878509    -0.13500
Br2897     Br  0.78355654  0.88775862  0.63803436    -0.05600
Br2898     Br  0.73602819  0.89681209  0.01777530     0.00000
Br2899     Br  0.88491774  0.89101112  0.55799071     0.00500
Br2900     Br  0.82622037  0.97213809  0.61470199    -0.03900
Br2901     Br  0.71000377  0.83808312  0.62495969     0.00600
Br2902     Br  0.80914370  0.93637441  0.02983775    -0.03200
Br2903     Br  0.81780668  0.86156129  0.53713776    -0.04100
Br2904     Br  0.89366550  0.00224646  0.63573497    -0.00100
C2905       C  0.55891935  0.91558100  0.59675607     0.01300
C2906       C  0.54444497  0.88627552  0.60405786     0.04100
C2907       C  0.55875923  0.87107477  0.59235642    -0.11900
C2908       C  0.58796938  0.88562411  0.57435326     0.23400
C2909       C  0.60203152  0.91441571  0.56623304    -0.12500
C2910       C  0.58772763  0.92958220  0.57773861     0.04800
C2911       C  0.60589286  0.87329357  0.56865004     0.27200
C2912       C  0.62563320  0.88490448  0.59157810    -0.13200
C2913       C  0.64287675  0.87361438  0.58690000     0.05300
C2914       C  0.63915789  0.84937790  0.56002550    -0.09200
C2915       C  0.61895531  0.83732658  0.53737597     0.06200
C2916       C  0.60266357  0.84963460  0.54144624    -0.13500
Br2917     Br  0.64135031  0.93344128  0.54012698    -0.05600
Br2918     Br  0.50555236  0.86732869  0.63085258     0.00000
Br2919     Br  0.67027043  0.89053884  0.61853066     0.00500
Br2920     Br  0.57531875  0.83363333  0.51039419    -0.03900
Br2921     Br  0.60944187  0.97130231  0.57067098     0.00600
Br2922     Br  0.53884444  0.83056986  0.60142119    -0.03200
Br2923     Br  0.62755425  0.91499220  0.63054431    -0.04100
Br2924     Br  0.61417204  0.80448907  0.50038217    -0.00100
C2925       C  0.54256229  0.60815794  0.84853712     0.01300
C2926       C  0.55713211  0.61034750  0.81670858     0.04100
C2927       C  0.57265902  0.63825721  0.80591958    -0.11900
C2928       C  0.57178527  0.66325741  0.82634572     0.23400
C2929       C  0.55513122  0.65998195  0.85739861    -0.12500
C2930       C  0.54170061  0.63304001  0.86898484     0.04800
C2931       C  0.59067791  0.69409263  0.81682273     0.27200
C2932       C  0.61825062  0.71914344  0.83082345    -0.13200
C2933       C  0.63529875  0.74917605  0.82422411     0.05300
C2934       C  0.62556402  0.75426634  0.80245072    -0.09200
C2935       C  0.59800416  0.72893804  0.78809171     0.06200
C2936       C  0.58043211  0.69905824  0.79564352    -0.13500
Br2937     Br  0.55156572  0.69292962  0.88436586    -0.05600
Br2938     Br  0.55674332  0.57533687  0.78868860     0.00000
Br2939     Br  0.67027708  0.78371348  0.84796885     0.00500
Br2940     Br  0.54151614  0.66516626  0.77836670    -0.03900
Br2941     Br  0.52352437  0.63082230  0.91330107     0.00600
Br2942     Br  0.59656668  0.64288615  0.76410890    -0.03200
Br2943     Br  0.63202422  0.71251688  0.86038939    -0.04100
Br2944     Br  0.58420082  0.73472346  0.75782222    -0.00100
C2945       C  0.72633780  0.85447927  0.78824208     0.01300
C2946       C  0.74162771  0.84027881  0.77205670     0.04100
C2947       C  0.77154380  0.85441518  0.77861763    -0.11900
C2948       C  0.78748010  0.88389739  0.79978611     0.23400
C2949       C  0.77406714  0.90008441  0.81248081    -0.12500
C2950       C  0.74377753  0.88570388  0.80671116     0.04800
C2951       C  0.81680674  0.89652631  0.81120238     0.27200
C2952       C  0.81591683  0.89357624  0.84203449    -0.13200
C2953       C  0.84328651  0.90642501  0.85400504     0.05300
C2954       C  0.87198213  0.92132477  0.83471235    -0.09200
C2955       C  0.87259941  0.92285947  0.80313641     0.06200
C2956       C  0.84531380  0.91125252  0.79177693    -0.13500
Br2957     Br  0.79682378  0.94147477  0.83970449    -0.05600
Br2958     Br  0.72243659  0.80208549  0.73937937     0.00000
Br2959     Br  0.84096165  0.90489360  0.89774712     0.00500
Br2960     Br  0.84695733  0.91587647  0.74978707    -0.03900
Br2961     Br  0.72708258  0.90947514  0.82538972     0.00600
Br2962     Br  0.78992537  0.83233148  0.76035230    -0.03200
Br2963     Br  0.77677605  0.87173174  0.86803356    -0.04100
Br2964     Br  0.91050448  0.93897180  0.77456994    -0.00100
C2965       C  0.63041632  0.84628651  0.81035754     0.01300
C2966       C  0.62829416  0.85759067  0.78802420     0.04100
C2967       C  0.61531340  0.87414030  0.79856496    -0.11900
C2968       C  0.60294374  0.87795664  0.83111352     0.23400
C2969       C  0.60395923  0.86554584  0.85315326    -0.12500
C2970       C  0.61843009  0.85052745  0.84302185     0.04800
C2971       C  0.58937854  0.89552998  0.84236313     0.27200
C2972       C  0.60748424  0.92773706  0.85685054    -0.13200
C2973       C  0.59468600  0.94449020  0.86751035     0.05300
C2974       C  0.56387513  0.92915939  0.86302449    -0.09200
C2975       C  0.54594605  0.89697250  0.84810273     0.06200
C2976       C  0.55849630  0.88009773  0.83837584    -0.13500
Br2977     Br  0.58558144  0.86935677  0.89725849    -0.05600
Br2978     Br  0.64233082  0.84952593  0.74291209     0.00000
Br2979     Br  0.61985202  0.98869148  0.88659004     0.00500
Br2980     Br  0.53355943  0.83578292  0.81942623    -0.03900
Br2981     Br  0.62348023  0.83744721  0.87436861     0.00600
Br2982     Br  0.61511787  0.89233462  0.76874583    -0.03200
Br2983     Br  0.65011204  0.94883335  0.86107968    -0.04100
Br2984     Br  0.50403073  0.87583104  0.84088447    -0.00100
C2985       C  0.86726274  0.63141189  0.72954899     0.01300
C2986       C  0.88025249  0.63492012  0.75494403     0.04100
C2987       C  0.89526183  0.62094082  0.74924589    -0.11900
C2988       C  0.89785802  0.60419316  0.71801598     0.23400
C2989       C  0.88413036  0.59996302  0.69290407    -0.12500
C2990       C  0.86885314  0.61355598  0.69861912     0.04800
C2991       C  0.91552599  0.59140105  0.71092209     0.27200
C2992       C  0.94582915  0.60783164  0.69554989    -0.13200
C2993       C  0.96105676  0.59360168  0.68391481     0.05300
C2994       C  0.94698416  0.56401010  0.69020214    -0.09200
C2995       C  0.91737548  0.54858317  0.70773828     0.06200
C2996       C  0.90118846  0.56168766  0.71678797    -0.13500
Br2997     Br  0.88614267  0.57518400  0.65072747    -0.05600
Br2998     Br  0.87684416  0.65818880  0.79750914     0.00000
Br2999     Br  0.00110158  0.61489110  0.65955269     0.00500
Br3000     Br  0.85883268  0.53847011  0.73573753    -0.03900
Br3001     Br  0.85108825  0.60853889  0.66355660     0.00600
Br3002     Br  0.91173959  0.62401794  0.78408983    -0.03200
Br3003     Br  0.96627568  0.64987959  0.69051036    -0.04100
Br3004     Br  0.89785730  0.50853057  0.71774287    -0.00100
C3005       C  0.93867507  0.86592378  0.68965425     0.01300
C3006       C  0.94237559  0.86772906  0.72077151     0.04100
C3007       C  0.93071478  0.84043387  0.73039350    -0.11900
C3008       C  0.91404177  0.81099625  0.70952746     0.23400
C3009       C  0.90887538  0.80882221  0.67905957    -0.12500
C3010       C  0.92119857  0.83623119  0.66904622     0.04800
C3011       C  0.90110137  0.78216437  0.72001735     0.27200
C3012       C  0.91772615  0.76957156  0.71177269    -0.13200
C3013       C  0.90394448  0.74026509  0.71856706     0.05300
C3014       C  0.87379385  0.72426149  0.73521288    -0.09200
C3015       C  0.85965403  0.73980268  0.74785738     0.06200
C3016       C  0.87229324  0.76758156  0.73856902    -0.13500
Br3017     Br  0.88506574  0.76814541  0.65107012    -0.05600
Br3018     Br  0.96082104  0.90716607  0.75144159     0.00000
Br3019     Br  0.92686566  0.72282438  0.70400389     0.00500
Br3020     Br  0.84970496  0.78515511  0.75013476    -0.03900
Br3021     Br  0.91449712  0.83274985  0.62685083     0.00600
Br3022     Br  0.93761790  0.84318993  0.77212198    -0.03200
Br3023     Br  0.95922005  0.79256244  0.69054874    -0.04100
Br3024     Br  0.82478893  0.72498901  0.78057687    -0.00100
C3025       C  0.77553936  0.61899061  0.72282908     0.01300
C3026       C  0.75227952  0.60028140  0.74504651     0.04100
C3027       C  0.72135414  0.58016826  0.73875249    -0.11900
C3028       C  0.71380708  0.57851191  0.71009807     0.23400
C3029       C  0.73708400  0.59625793  0.68730018    -0.12500
C3030       C  0.76794987  0.61669524  0.69374489     0.04800
C3031       C  0.68141201  0.56180794  0.70577212     0.27200
C3032       C  0.66529753  0.53177529  0.68569930    -0.13200
C3033       C  0.63652213  0.51870718  0.67713861     0.05300
C3034       C  0.62369761  0.53549758  0.68925776    -0.09200
C3035       C  0.63892584  0.56441339  0.71152112     0.06200
C3036       C  0.66786912  0.57769536  0.71948550    -0.13500
Br3037     Br  0.72634440  0.59325932  0.64774890    -0.05600
Br3038     Br  0.76254199  0.60348377  0.78494951     0.00000
Br3039     Br  0.61430581  0.97925586  0.65380687     0.00500
Br3040     Br  0.68975416  0.61835933  0.74827585    -0.03900
Br3041     Br  0.79966211  0.64110713  0.66241087     0.00600
Br3042     Br  0.68902941  0.55597667  0.76989318    -0.03200
Br3043     Br  0.68331202  0.50930768  0.66934924    -0.04100
Br3044     Br  0.62017524  0.58585532  0.73171319    -0.00100
C3045       C  0.85023459  0.62431234  0.97344064     0.01300
C3046       C  0.87062168  0.63127230  0.99267160     0.04100
C3047       C  0.88328792  0.61457045  0.98350184    -0.11900
C3048       C  0.87373769  0.58928295  0.95644767     0.23400
C3049       C  0.85209679  0.58138761  0.93813794    -0.12500
C3050       C  0.84149384  0.59982134  0.94574891     0.04800
C3051       C  0.88779968  0.57225522  0.94616485     0.27200
C3052       C  0.91119627  0.57929750  0.92010733    -0.13200
C3053       C  0.92533043  0.56400476  0.91068800     0.05300
C3054       C  0.91713256  0.54239610  0.92831007    -0.09200
C3055       C  0.89234974  0.53412990  0.95332795     0.06200
C3056       C  0.87789717  0.54916214  0.96228319    -0.13500
Br3057     Br  0.83728654  0.54559083  0.90242645    -0.05600
Br3058     Br  0.82734738  0.61616511  0.53540462     0.00000
Br3059     Br  0.95577153  0.57336738  0.87332386     0.00500
Br3060     Br  0.84736255  0.53462755  0.42597663    -0.03900
Br3061     Br  0.81737330  0.59342688  0.91659858     0.00600
Br3062     Br  0.91469492  0.62726259  0.00714619    -0.03200
Br3063     Br  0.92468656  0.61091957  0.89786379    -0.04100
Br3064     Br  0.87729340  0.49488678  0.40247465    -0.00100
C3065       C  0.86741306  0.72139620  0.97538032     0.01300
C3066       C  0.87498573  0.72607614  0.94359058     0.04100
C3067       C  0.89255287  0.75660594  0.93828923    -0.11900
C3068       C  0.90340634  0.78237748  0.96471347     0.23400
C3069       C  0.89722194  0.77774160  0.99628285    -0.12500
C3070       C  0.87833214  0.74712910  0.00175607     0.04800
C3071       C  0.91830926  0.81389539  0.95969147     0.27200
C3072       C  0.95005767  0.83312503  0.94992185    -0.13200
C3073       C  0.96342814  0.86192793  0.94230497     0.05300
C3074       C  0.94487704  0.87155776  0.94482234    -0.09200
C3075       C  0.91351918  0.85315300  0.95723636     0.06200
C3076       C  0.90013549  0.82407267  0.96384935    -0.13500
Br3077     Br  0.91431327  0.81339453  0.03184998    -0.05600
Br3078     Br  0.85996241  0.69055019  0.90759907     0.00000
Br3079     Br  0.00668791  0.88684205  0.92705077     0.00500
Br3080     Br  0.88280574  0.81875461  0.49820123    -0.03900
Br3081     Br  0.91066465  0.74194642  0.51708479     0.00600
Br3082     Br  0.90069319  0.76317156  0.89514135    -0.03200
Br3083     Br  0.97470240  0.81916532  0.94606145    -0.04100
Br3084     Br  0.91112607  0.88317644  0.47383542    -0.00100
C3085       C  0.76259842  0.62956900  0.99831019     0.01300
C3086       C  0.75073870  0.64744916  0.00813973     0.04100
C3087       C  0.72031859  0.63306849  0.00348088    -0.11900
C3088       C  0.70155002  0.60102384  0.98937595     0.23400
C3089       C  0.71147679  0.58232897  0.98384396    -0.12500
C3090       C  0.74160128  0.59622875  0.98907178     0.04800
C3091       C  0.67241251  0.58745632  0.97785364     0.27200
C3092       C  0.64483039  0.57527079  0.99868256    -0.13200
C3093       C  0.61706613  0.56128027  0.98699096     0.05300
C3094       C  0.61699804  0.55972592  0.95443307    -0.09200
C3095       C  0.64496751  0.57306713  0.93393721     0.06200
C3096       C  0.67256353  0.58667570  0.94561976    -0.13500
Br3097     Br  0.68387820  0.53760812  0.96737911    -0.05600
Br3098     Br  0.77496495  0.69147635  0.02887446     0.00000
Br3099     Br  0.58790456  0.53737975  0.50610751     0.00500
Br3100     Br  0.71076577  0.60403041  0.91741972    -0.03900
Br3101     Br  0.75231069  0.56814527  0.98298765     0.00600
Br3102     Br  0.70431638  0.65727430  0.01512289    -0.03200
Br3103     Br  0.65480508  0.56454065  0.52617059    -0.04100
Br3104     Br  0.64570138  0.57169515  0.88939013    -0.00100
loop_ 
_geom_bond_atom_site_label_1 
_geom_bond_atom_site_label_2 
_geom_bond_distance 
_geom_bond_site_symmetry_2 
_ccdc_geom_bond_type 
C1            N2   1.356       .  A
C1            N6   1.355       .  A
C1          C717   1.467       .  S
N2            C3   1.356       .  A
C3            N4   1.360       .  A
C3          C757   1.498   1_556  S
N4            C5   1.357       .  A
C5            N6   1.354       .  A
C5          C737   1.467       .  S
C7            N8   1.352       .  A
C7           N12   1.352       .  A
C7          C269   1.458       .  S
N8            C9   1.350       .  A
C9           N10   1.354       .  A
C9          C309   1.460       .  S
N10          C11   1.356       .  A
C11          N12   1.354       .  A
C11         C298   1.468       .  S
C13          N14   1.357       .  A
C13          N18   1.356       .  A
C13         C249   1.474       .  S
N14          C15   1.354       .  A
C15          N16   1.358       .  A
C15         C218   1.472       .  S
N16          C17   1.359       .  A
C17          N18   1.356       .  A
C17         C229   1.479       .  S
C19          N20   1.356       .  A
C19          N24   1.356       .  A
C19         C198   1.466       .  S
N20          C21   1.354       .  A
C21          N22   1.356       .  A
C21         C169   1.471       .  S
N22          C23   1.355       .  A
C23          N24   1.354       .  A
C23         C149   1.485       .  S
O25         Zr37   2.422       .  S
O25          C27   1.283       .  A
O26         Zr63   2.411       .  S
O26          C27   1.285       .  A
C27         C258   1.464       .  S
O28         Zr40   2.450       .  S
O28          C30   1.288       .  A
O29       Zr1616   2.416       .  S
O29          C30   1.284   1_655  A
C30         C209   1.478       .  S
O31         Zr40   2.448       .  S
O31          C33   1.289       .  A
O32         Zr63   2.429       .  S
O32         C809   1.288       .  A
C33         C378   1.487       .  S
C33         O808   1.288       .  A
O34         Zr37   2.419       .  S
O34        C1588   1.283   1_455  A
O35         Zr64   2.417       .  S
O35         C812   1.286   1_545  A
C36         C112   1.457       .  S
C36        O1586   1.283       .  A
C36         O811   1.285       .  A
Zr37         O38   2.435       .  S
Zr37       O1591   2.431       .  S
Zr37         O43   2.368       .  S
Zr37        O820   2.367       .  S
Zr37       O1619   2.367   1_455  S
Zr37       O1621   2.371   1_455  S
O38          H81   0.990       .  S
O39       Zr1589   2.433       .  S
O39          H80   0.989       .  S
O39        H1636   0.990       .  S
Zr40         O41   2.431       .  S
Zr40         O42   2.429       .  S
Zr40         O44   2.370       .  S
Zr40         O68   2.370       .  S
Zr40         O70   2.364   1_455  S
Zr40        O819   2.379       .  S
O41          H82   0.989       .  S
O41          H85   0.990       .  S
O42          H75   0.990       .  S
O43         Zr63   2.379       .  S
O43        Zr816   2.375       .  S
O44        Zr813   2.368   1_545  S
O44       Zr1616   2.386   1_455  S
O44          H71   0.963       .  S
O45         Zr57   2.442       .  S
O45          C47   1.287       .  A
O46        Zr840   2.428       .  S
O46          C47   1.287       .  A
C47         C238   1.483       .  S
O48         Zr60   2.444   1_565  S
O48        C1214   1.288       .  A
O49         Zr63   2.429       .  S
O49        C1990   1.287       .  A
C50          C98   1.474       .  S
C50        O1212   1.292       .  A
C50        O1989   1.285   1_554  A
O51         Zr60   2.420       .  S
O51          C53   1.283       .  A
O52         Zr64   2.415       .  S
O52          C53   1.285       .  A
C53         C338   1.462       .  S
O54         Zr57   2.427       .  S
O54          C56   1.286       .  A
O55       Zr1615   2.425       .  S
O55          C56   1.286       .  A
C56         C358   1.468       .  S
Zr57         O58   2.429       .  S
Zr57         O59   2.433       .  S
Zr57         O65   2.367       .  S
Zr57         O66   2.372       .  S
Zr57         O69   2.369       .  S
Zr57         O67   2.363       .  S
O58          H78   0.989       .  S
O58          H83   0.989       .  S
O59          H79   0.990       .  S
Zr60        O837   2.436   1_545  S
Zr60       O1614   2.433       .  S
Zr60        O842   2.355   1_545  S
Zr60        O841   2.370   1_545  S
Zr60       O1622   2.383       .  S
Zr60       O1620   2.369       .  S
O61        Zr836   2.435       .  S
O61          H77   0.990       .  S
O62       Zr1612   2.437       .  S
O62          H76   0.990       .  S
O62        H2026   0.990       .  S
Zr63       O1607   2.414   1_455  S
Zr63       O1618   2.375   1_455  S
Zr63        O844   2.380       .  S
Zr63       O1621   2.392   1_455  S
Zr64       O1581   2.433       .  S
Zr64        O822   2.440   1_545  S
Zr64       O1596   2.385       .  S
Zr64        O841   2.383   1_545  S
Zr64        O843   2.375   1_545  S
Zr64       O1622   2.389       .  S
O65        Zr836   2.371       .  S
O65        Zr840   2.382       .  S
O65          H73   0.966       .  S
O66        Zr836   2.357       .  S
O66       Zr1615   2.376       .  S
O67       Zr1589   2.370       .  S
O67        Zr840   2.377       .  S
O68       Zr1612   2.372   1_455  S
O68        Zr839   2.384   1_545  S
O68          H72   0.962       .  S
O69       Zr1589   2.367       .  S
O69       Zr1615   2.392       .  S
O69          H74   0.958       .  S
O70       Zr1612   2.377       .  S
O70       Zr1616   2.383       .  S
H84        O1591   0.990       .  S
H86        O2002   0.990       .  S
O87         Zr99   2.424       .  S
O87          C89   1.284       .  A
O88        Zr125   2.429       .  S
O88          C89   1.287       .  A
C89         C189   1.472       .  S
O90        Zr102   2.442       .  S
O90          C92   1.289       .  A
O91       Zr1678   2.397   1_455  S
O91          C92   1.282       .  A
C92         C158   1.471       .  S
O93        Zr102   2.449       .  S
O93          C95   1.289       .  A
O94        Zr125   2.415       .  S
O94         C871   1.285       .  A
C95         C318   1.475       .  S
C95         O870   1.282       .  A
O96         Zr99   2.429   1_655  S
O96        C1650   1.286       .  A
O97        Zr126   2.434       .  S
O97         C874   1.288   1_545  A
C98        O1648   1.287       .  A
C98         O873   1.288       .  A
Zr99        O100   2.433       .  S
Zr99       O1653   2.436   1_455  S
Zr99        O105   2.377       .  S
Zr99        O882   2.370       .  S
Zr99       O1681   2.367   1_455  S
Zr99       O1683   2.361   1_455  S
O100        H143   0.990       .  S
O101      Zr1651   2.436       .  S
O101        H142   0.990       .  S
O101       H1698   0.990       .  S
Zr102       O103   2.430       .  S
Zr102       O104   2.435       .  S
Zr102       O106   2.375       .  S
Zr102       O130   2.366       .  S
Zr102       O132   2.376       .  S
Zr102       O881   2.367   1_545  S
O103        H144   0.990       .  S
O103        H147   0.990       .  S
O104        H137   0.990       .  S
O105       Zr125   2.377       .  S
O105       Zr878   2.369       .  S
O106       Zr875   2.370   1_545  S
O106      Zr1678   2.390   1_455  S
O106        H133   0.966       .  S
O107       Zr119   2.428       .  S
O107        C109   1.285       .  A
O108       Zr902   2.412       .  S
O108        C109   1.283       .  A
C109        C178   1.461       .  S
O110       Zr122   2.415       .  S
O110        C888   1.283   1_545  A
O111       Zr125   2.417       .  S
O111       C1664   1.286   1_455  A
C112        O886   1.284       .  A
C112       O1663   1.284       .  A
O113       Zr122   2.418       .  S
O113        C115   1.283       .  A
O114       Zr126   2.429       .  S
O114        C115   1.287       .  A
C115        C278   1.471       .  S
O116       Zr119   2.435       .  S
O116        C118   1.287       .  A
O117      Zr1677   2.416       .  S
O117        C118   1.285       .  A
C118        C289   1.473       .  S
Zr119       O120   2.433       .  S
Zr119       O121   2.434       .  S
Zr119       O127   2.368       .  S
Zr119       O128   2.370       .  S
Zr119       O131   2.371       .  S
Zr119       O129   2.371       .  S
O120        H140   0.990       .  S
O120        H145   0.990       .  S
O121        H141   0.990       .  S
Zr122       O899   2.431       .  S
Zr122      O1676   2.438       .  S
Zr122       O904   2.375   1_545  S
Zr122       O903   2.371   1_545  S
Zr122      O1684   2.366       .  S
Zr122      O1682   2.364       .  S
O123       Zr898   2.428       .  S
O123        H139   0.990       .  S
O124      Zr1674   2.437   1_455  S
O124        H138   0.990       .  S
O124       H1700   0.990   1_455  S
Zr125      O1669   2.404   1_455  S
Zr125      O1680   2.378   1_455  S
Zr125       O906   2.379       .  S
Zr125      O1683   2.380   1_455  S
Zr126      O1643   2.403       .  S
Zr126       O884   2.406   1_545  S
Zr126      O1658   2.385       .  S
Zr126       O903   2.383   1_545  S
Zr126       O905   2.377   1_545  S
Zr126      O1684   2.380       .  S
O127       Zr898   2.372       .  S
O127       Zr902   2.383       .  S
O127        H135   0.963       .  S
O128       Zr898   2.374       .  S
O128      Zr1677   2.379       .  S
O129      Zr1651   2.369       .  S
O129       Zr902   2.378       .  S
O130      Zr1674   2.364   1_455  S
O130       Zr901   2.381   1_545  S
O130        H134   0.965       .  S
O131      Zr1651   2.366       .  S
O131      Zr1677   2.379       .  S
O131        H136   0.965       .  S
O132      Zr1674   2.368   1_455  S
O132      Zr1678   2.386   1_455  S
H146       O1653   0.990       .  S
H148       O1676   0.990       .  S
C149        C150   1.415       .  A
C149        C154   1.422       .  A
C150        C151   1.403       .  A
C150       Br550   1.932       .  S
C151        C152   1.406       .  A
C151       Br166   1.933       .  S
C152        C155   1.478       .  S
C152        C153   1.406       .  A
C153        C154   1.407       .  A
C153       Br161   1.933       .  S
C154       Br165   1.935       .  S
C155        C156   1.406       .  A
C155        C160   1.408       .  A
C156        C157   1.403       .  A
C156       Br167   1.931       .  S
C157        C158   1.413       .  A
C157       Br163   1.928       .  S
C158        C159   1.411       .  A
C159        C160   1.404       .  A
C159       Br168   1.933       .  S
C160       Br164   1.930       .  S
Br162       C538   1.934       .  S
C169        C170   1.414       .  A
C169        C174   1.413       .  A
C170        C171   1.406       .  A
C170       Br570   1.930       .  S
C171        C172   1.406       .  A
C171       Br574   1.930       .  S
C172        C175   1.471       .  S
C172        C173   1.406       .  A
C173        C174   1.399       .  A
C173       Br181   1.933       .  S
C174       Br185   1.936       .  S
C175        C176   1.407       .  A
C175        C180   1.409       .  A
C176        C177   1.401       .  A
C176       Br187   1.929       .  S
C177        C178   1.407       .  A
C177       Br183   1.930       .  S
C178        C179   1.407       .  A
C179        C180   1.403       .  A
C179       Br188   1.927       .  S
C180       Br184   1.931       .  S
Br182       C558   1.930       .  S
Br186       C559   1.930       .  S
C189        C190   1.411       .  A
C189        C194   1.414       .  A
C190        C191   1.403       .  A
C190       Br202   1.927   1_455  S
C191        C192   1.406       .  A
C191       Br206   1.931       .  S
C192        C195   1.469       .  S
C192        C193   1.404       .  A
C193        C194   1.401       .  A
C193       Br201   1.933       .  S
C194       Br205   1.929       .  S
C195        C196   1.406       .  A
C195        C200   1.405       .  A
C196        C197   1.401       .  A
C196       Br207   1.933       .  S
C197        C198   1.414       .  A
C197       Br203   1.934       .  S
C198        C199   1.410       .  A
C199        C200   1.402       .  A
C199       Br208   1.930   1_554  S
C200       Br204   1.929       .  S
C209        C210   1.410       .  A
C209        C214   1.411       .  A
C210        C211   1.403       .  A
C210       Br222   1.928       .  S
C211        C212   1.408       .  A
C211       Br226   1.932       .  S
C212        C215   1.481       .  S
C212        C213   1.409       .  A
C213        C214   1.409       .  A
C213       Br221   1.927       .  S
C214       Br225   1.924   1_455  S
C215        C216   1.409       .  A
C215        C220   1.409       .  A
C216        C217   1.405       .  A
C216       Br227   1.931       .  S
C217        C218   1.410       .  A
C217       Br223   1.932       .  S
C218        C219   1.409       .  A
C219        C220   1.407       .  A
C219       Br228   1.928       .  S
C220       Br224   1.929       .  S
C229        C230   1.412       .  A
C229        C234   1.416       .  A
C230        C231   1.406       .  A
C230       Br242   1.932       .  S
C231        C232   1.408       .  A
C231       Br246   1.930       .  S
C232        C235   1.481       .  S
C232        C233   1.409       .  A
C233        C234   1.406       .  A
C233       Br241   1.934       .  S
C234       Br245   1.934       .  S
C235        C236   1.406       .  A
C235        C240   1.408       .  A
C236        C237   1.403       .  A
C236       Br247   1.936       .  S
C237        C238   1.414       .  A
C237       Br243   1.925       .  S
C238        C239   1.414       .  A
C239        C240   1.409       .  A
C239       Br248   1.927       .  S
C240       Br244   1.928       .  S
C249        C250   1.413       .  A
C249        C254   1.414       .  A
C250        C251   1.407       .  A
C250       Br262   1.930       .  S
C251        C252   1.407       .  A
C251       Br266   1.929       .  S
C252        C255   1.474       .  S
C252        C253   1.406       .  A
C253        C254   1.400       .  A
C253       Br261   1.933       .  S
C254       Br265   1.934       .  S
C255        C256   1.409       .  A
C255        C260   1.406       .  A
C256        C257   1.402       .  A
C256       Br267   1.928       .  S
C257        C258   1.408       .  A
C257       Br263   1.931       .  S
C258        C259   1.411       .  A
C259        C260   1.402       .  A
C259       Br268   1.929       .  S
C260       Br264   1.931       .  S
C269        C270   1.410       .  A
C269        C274   1.412       .  A
C270        C271   1.403       .  A
C270       Br282   1.931       .  S
C271        C272   1.406       .  A
C271       Br286   1.929       .  S
C272        C275   1.464       .  S
C272        C273   1.404       .  A
C273        C274   1.394       .  A
C273       Br281   1.936       .  S
C274       Br285   1.936       .  S
C275        C276   1.406       .  A
C275        C280   1.401       .  A
C276        C277   1.402       .  A
C276       Br287   1.932       .  S
C277        C278   1.412       .  A
C277       Br283   1.931       .  S
C278        C279   1.416       .  A
C279        C280   1.400       .  A
C279       Br288   1.929       .  S
C280       Br284   1.934       .  S
C289        C290   1.411       .  A
C289        C294   1.414       .  A
C290        C291   1.403       .  A
C290       Br302   1.929       .  S
C291        C292   1.407       .  A
C291       Br306   1.931       .  S
C292        C295   1.473       .  S
C292        C293   1.407       .  A
C293        C294   1.403       .  A
C293       Br301   1.934       .  S
C294       Br305   1.930       .  S
C295        C296   1.408       .  A
C295        C300   1.408       .  A
C296        C297   1.403       .  A
C296       Br307   1.932       .  S
C297        C298   1.415       .  A
C297       Br303   1.936       .  S
C298        C299   1.410       .  A
C299        C300   1.400       .  A
C299       Br308   1.932       .  S
C300       Br304   1.933       .  S
C309        C310   1.410       .  A
C309        C314   1.410       .  A
C310        C311   1.400       .  A
C310       Br322   1.931       .  S
C311        C312   1.404       .  A
C311       Br326   1.929       .  S
C312        C315   1.466       .  S
C312        C313   1.407       .  A
C313        C314   1.400       .  A
C313       Br321   1.933       .  S
C314       Br325   1.932       .  S
C315        C316   1.402       .  A
C315        C320   1.404       .  A
C316        C317   1.403       .  A
C316       Br327   1.931       .  S
C317        C318   1.416       .  A
C317      Br1099   1.927   1_545  S
C318        C319   1.413       .  A
C319        C320   1.401       .  A
C319       Br328   1.928       .  S
C320       Br324   1.935       .  S
Br323      C1093   1.929       .  S
C329        C389   1.469       .  S
C329        C330   1.412       .  A
C329        C334   1.413       .  A
C330        C331   1.404       .  A
C330       Br730   1.930       .  S
C331        C332   1.405       .  A
C331       Br346   1.929       .  S
C332        C335   1.469       .  S
C332        C333   1.406       .  A
C333        C334   1.399       .  A
C333       Br341   1.930       .  S
C334       Br345   1.935       .  S
C335        C336   1.405       .  A
C335        C340   1.408       .  A
C336        C337   1.400       .  A
C336       Br347   1.930       .  S
C337        C338   1.412       .  A
C337       Br343   1.931       .  S
C338        C339   1.409       .  A
C339        C340   1.402       .  A
C339       Br736   1.932   1_545  S
C340       Br732   1.931       .  S
Br342       C718   1.930   1_554  S
Br344       C728   1.932   1_554  S
Br348       C727   1.929       .  S
C349        C393   1.475       .  S
C349        C350   1.412       .  A
C349        C354   1.415       .  A
C350        C351   1.401       .  A
C350       Br362   1.933       .  S
C351        C352   1.406       .  A
C351       Br366   1.932       .  S
C352        C355   1.472       .  S
C352        C353   1.405       .  A
C353        C354   1.407       .  A
C353       Br361   1.933       .  S
C354       Br753   1.929       .  S
C355        C356   1.408       .  A
C355        C360   1.404       .  A
C356        C357   1.406       .  A
C356       Br367   1.930       .  S
C357        C358   1.409       .  A
C357       Br363   1.925       .  S
C358        C359   1.410       .  A
C359        C360   1.401       .  A
C359       Br756   1.927       .  S
C360       Br752   1.931       .  S
Br364       C748   1.935       .  S
Br365       C742   1.929       .  S
Br368       C747   1.927       .  S
C369        C391   1.484       .  S
C369        C370   1.411       .  A
C369        C374   1.415       .  A
C370        C371   1.407       .  A
C370       Br382   1.932       .  S
C371        C372   1.409       .  A
C371       Br386   1.927       .  S
C372        C375   1.489       .  S
C372        C373   1.411       .  A
C373        C374   1.410       .  A
C373       Br381   1.932       .  S
C374       Br385   1.931       .  S
C375        C376   1.408       .  A
C375        C380   1.408       .  A
C376        C377   1.410       .  A
C376       Br775   1.927       .  S
C377        C378   1.414       .  A
C377       Br771   1.928       .  S
C378        C379   1.415       .  A
C379        C380   1.408       .  A
C379       Br388   1.929       .  S
C380       Br384   1.932       .  S
Br383       C765   1.928   1_554  S
Br387       C764   1.926   1_554  S
C389        N390   1.360       .  A
C389        N394   1.356       .  A
N390        C391   1.357       .  A
C391        N392   1.358       .  A
N392        C393   1.357       .  A
C393        N394   1.352       .  A
C395        N396   1.353       .  A
C395        N400   1.357       .  A
C395        C657   1.464       .  S
N396        C397   1.351       .  A
C397        N398   1.355       .  A
C397        C697   1.466       .  S
N398        C399   1.359       .  A
C399        N400   1.357       .  A
C399        C686   1.483       .  S
C401        N402   1.358       .  A
C401        N406   1.361       .  A
C401        C637   1.474       .  S
N402        C403   1.355       .  A
C403        N404   1.360       .  A
C403        C606   1.491       .  S
N404        C405   1.362       .  A
C405        N406   1.360       .  A
C405        C617   1.504       .  S
C407        N408   1.355       .  A
C407        N412   1.355       .  A
C407        C586   1.460       .  S
N408        C409   1.353       .  A
C409        N410   1.355       .  A
C409        C557   1.466       .  S
N410        C411   1.355       .  A
C411        N412   1.353       .  A
C411        C537   1.481       .  S
O413       Zr425   2.446       .  S
O413        C415   1.287       .  A
O414       Zr451   2.437       .  S
O414        C415   1.288       .  A
C415        C646   1.479       .  S
O416       Zr428   2.437       .  S
O416        C418   1.286       .  A
O417      Zr2004   2.429   1_455  S
O417        C418   1.287       .  A
C418        C597   1.472       .  S
O419       Zr428   2.428       .  S
O419        C421   1.285       .  A
O420       Zr451   2.439       .  S
O420       C1197   1.289       .  A
C421        C766   1.477       .  S
C421       O1196   1.289       .  A
O422       Zr425   2.431       .  S
O422       C1976   1.285       .  A
O423       Zr452   2.429   1_565  S
O423       C1200   1.289       .  A
C424        C500   1.467       .  S
C424       O1974   1.286       .  A
C424       O1199   1.288       .  A
Zr425       O426   2.435       .  S
Zr425      O1979   2.432       .  S
Zr425       O431   2.366       .  S
Zr425      O1208   2.369       .  S
Zr425      O2007   2.386   1_455  S
Zr425      O2009   2.369   1_455  S
O426        H469   0.990       .  S
O427      Zr1977   2.431       .  S
O427        H468   0.989       .  S
O427       H2024   0.990       .  S
Zr428       O429   2.434       .  S
Zr428       O430   2.434       .  S
Zr428       O432   2.367       .  S
Zr428      O1207   2.377       .  S
Zr428       O456   2.368       .  S
Zr428       O458   2.370   1_455  S
O429        H470   0.990       .  S
O429        H473   0.990       .  S
O430        H463   0.990       .  S
O431      Zr1204   2.378       .  S
O431       Zr451   2.374       .  S
O432      Zr1201   2.367   1_545  S
O432      Zr2004   2.379   1_455  S
O432        H459   0.966       .  S
O433       Zr445   2.464       .  S
O433        C435   1.292       .  A
O434      Zr1228   2.435       .  S
O434        C435   1.289       .  A
C435        C626   1.496       .  S
O436       Zr448   2.455   1_554  S
O436        C826   1.289   1_545  A
O437       Zr451   2.408       .  S
O437       C1602   1.285   1_456  A
C438        C486   1.477       .  S
C438        O824   1.288       .  A
C438       O1601   1.287       .  A
O439       Zr448   2.459       .  S
O439        C441   1.292       .  A
O440       Zr452   2.417       .  S
O440        C441   1.285       .  A
C441        C726   1.491       .  S
O442       Zr445   2.443       .  S
O442        C444   1.289       .  A
O443      Zr2003   2.432       .  S
O443        C444   1.287       .  A
C444        C746   1.489       .  S
Zr445       O446   2.433       .  S
Zr445       O447   2.433       .  S
Zr445       O453   2.360       .  S
Zr445       O454   2.370       .  S
Zr445       O457   2.377       .  S
Zr445       O455   2.378       .  S
O446        H466   0.989       .  S
O446        H471   0.990       .  S
O447        H467   0.990       .  S
Zr448      O1225   2.437   1_545  S
Zr448      O2002   2.435   1_556  S
Zr448      O1230   2.374   1_545  S
Zr448      O1229   2.371   1_545  S
Zr448      O2010   2.379       .  S
Zr448      O2008   2.376       .  S
O449      Zr1224   2.436       .  S
O449        H465   0.990       .  S
O450      Zr2000   2.434       .  S
O450        H464   0.990       .  S
O450       H1638   0.990   1_556  S
Zr451      O1995   2.417   1_455  S
Zr451      O2006   2.387   1_455  S
Zr451      O1232   2.386       .  S
Zr451      O2009   2.386   1_455  S
Zr452      O1969   2.426       .  S
Zr452      O1210   2.432   1_545  S
Zr452      O1984   2.377       .  S
Zr452      O1229   2.379   1_545  S
Zr452      O1231   2.380   1_545  S
Zr452      O2010   2.386       .  S
O453      Zr1224   2.372       .  S
O453      Zr1228   2.377       .  S
O453        H461   0.965       .  S
O454      Zr1224   2.376       .  S
O454      Zr2003   2.381       .  S
O455      Zr1977   2.387       .  S
O455      Zr1228   2.379       .  S
O456      Zr2000   2.379   1_455  S
O456      Zr1227   2.386   1_545  S
O456        H460   0.961       .  S
O457      Zr1977   2.368       .  S
O457      Zr2003   2.380       .  S
O457        H462   0.962       .  S
O458      Zr2000   2.381       .  S
O458      Zr2004   2.389       .  S
H472       O1979   0.990       .  S
H474       O1614   0.989       .  S
O475       Zr487   2.434       .  S
O475        C477   1.286       .  A
O476       Zr513   2.434       .  S
O476        C477   1.288       .  A
C477        C577   1.473       .  S
O478       Zr490   2.453       .  S
O478        C480   1.290       .  A
O479      Zr2066   2.404   1_455  S
O479        C480   1.283       .  A
C480        C546   1.473       .  S
O481       Zr490   2.458       .  S
O481        C483   1.291       .  A
O482       Zr513   2.411       .  S
O482       C1259   1.284       .  A
C483        C706   1.484       .  S
C483       O1258   1.286   1_545  A
O484       Zr487   2.450       .  S
O484       C2038   1.289       .  A
O485       Zr514   2.426       .  S
O485       C1262   1.287   1_545  A
C486       O2036   1.290       .  A
C486       O1261   1.288       .  A
Zr487       O488   2.433       .  S
Zr487      O2041   2.440   1_455  S
Zr487       O493   2.380       .  S
Zr487      O1270   2.373       .  S
Zr487      O2069   2.367   1_455  S
Zr487      O2071   2.372   1_455  S
O488        H531   0.990       .  S
O489      Zr2039   2.437       .  S
O489        H530   0.990       .  S
O489       H2086   0.990       .  S
Zr490       O491   2.434       .  S
Zr490       O492   2.431       .  S
Zr490       O494   2.379       .  S
Zr490      O1269   2.371   1_545  S
Zr490       O518   2.372       .  S
Zr490       O520   2.375       .  S
O491        H532   0.990       .  S
O491        H535   0.990       .  S
O492        H525   0.989       .  S
O493      Zr1266   2.369       .  S
O493       Zr513   2.388       .  S
O494      Zr1263   2.373   1_545  S
O494      Zr2066   2.389   1_455  S
O494        H521   0.964       .  S
O495       Zr507   2.432       .  S
O495        C497   1.287       .  A
O496      Zr1290   2.406       .  S
O496        C497   1.283       .  A
C497        C566   1.469       .  S
O498       Zr510   2.418       .  S
O498       C1276   1.283   1_545  A
O499       Zr513   2.446       .  S
O499       C2052   1.291       .  A
C500       O1274   1.284       .  A
C500       O2051   1.289       .  A
O501       Zr510   2.418       .  S
O501        C503   1.282       .  A
O502       Zr514   2.431       .  S
O502        C503   1.287       .  A
C503        C666   1.470       .  S
O504       Zr507   2.434       .  S
O504        C506   1.286       .  A
O505      Zr2065   2.430       .  S
O505        C506   1.288       .  A
C506        C677   1.478       .  S
Zr507       O508   2.433       .  S
Zr507       O509   2.429       .  S
Zr507       O515   2.364       .  S
Zr507       O516   2.367       .  S
Zr507       O519   2.368       .  S
Zr507       O517   2.373       .  S
O508        H528   0.990       .  S
O508        H533   0.990       .  S
O509        H529   0.990       .  S
Zr510      O1287   2.431       .  S
Zr510      O2064   2.435       .  S
Zr510      O1292   2.372   1_545  S
Zr510      O1291   2.372   1_545  S
Zr510      O2072   2.364       .  S
Zr510      O2070   2.365       .  S
O511      Zr1286   2.429       .  S
O511        H527   0.990       .  S
O512      Zr2062   2.432   1_455  S
O512        H526   0.990       .  S
O512       H2088   0.990       .  S
Zr513      O2057   2.417   1_455  S
Zr513      O2068   2.376   1_455  S
Zr513      O1294   2.389       .  S
Zr513      O2071   2.385   1_455  S
Zr514      O2031   2.400       .  S
Zr514      O1272   2.407   1_545  S
Zr514      O2046   2.384       .  S
Zr514      O1291   2.382   1_545  S
Zr514      O1293   2.378   1_545  S
Zr514      O2072   2.378       .  S
O515      Zr1286   2.365       .  S
O515      Zr1290   2.375       .  S
O515        H523   0.971       .  S
O516      Zr1286   2.372       .  S
O516      Zr2065   2.376       .  S
O517      Zr2039   2.366       .  S
O517      Zr1290   2.376       .  S
O518      Zr2062   2.365   1_455  S
O518      Zr1289   2.384   1_545  S
O518        H522   0.965       .  S
O519      Zr2039   2.376       .  S
O519      Zr2065   2.386       .  S
O519        H524   0.966       .  S
O520      Zr2062   2.365   1_455  S
O520      Zr2066   2.379   1_455  S
H534       O2041   0.990       .  S
H536       O2064   0.990       .  S
C537        C538   1.414       .  A
C537        C542   1.420       .  A
C538        C539   1.402       .  A
C539        C540   1.408       .  A
C539       Br554   1.934       .  S
C540        C543   1.479       .  S
C540        C541   1.407       .  A
C541        C542   1.407       .  A
C541       Br549   1.933       .  S
C542       Br553   1.935       .  S
C543        C544   1.406       .  A
C543        C548   1.410       .  A
C544        C545   1.403       .  A
C544       Br555   1.928       .  S
C545        C546   1.411       .  A
C545       Br551   1.928       .  S
C546        C547   1.411       .  A
C547        C548   1.406       .  A
C547       Br556   1.931       .  S
C548       Br552   1.933       .  S
C557        C558   1.411       .  A
C557        C562   1.410       .  A
C558        C559   1.406       .  A
C559        C560   1.407       .  A
C560        C563   1.472       .  S
C560        C561   1.408       .  A
C561        C562   1.399       .  A
C561       Br569   1.933       .  S
C562       Br573   1.935       .  S
C563        C564   1.405       .  A
C563        C568   1.407       .  A
C564        C565   1.399       .  A
C564       Br575   1.932       .  S
C565        C566   1.410       .  A
C565       Br571   1.926       .  S
C566        C567   1.412       .  A
C567        C568   1.404       .  A
C567       Br576   1.928       .  S
C568       Br572   1.929       .  S
C577        C578   1.412       .  A
C577        C582   1.412       .  A
C578        C579   1.405       .  A
C578       Br590   1.926       .  S
C579        C580   1.405       .  A
C579       Br594   1.932       .  S
C580        C583   1.471       .  S
C580        C581   1.406       .  A
C581        C582   1.403       .  A
C581       Br589   1.931       .  S
C582       Br593   1.933       .  S
C583        C584   1.408       .  A
C583        C588   1.407       .  A
C584        C585   1.399       .  A
C584       Br595   1.934       .  S
C585        C586   1.411       .  A
C585       Br591   1.935       .  S
C586        C587   1.409       .  A
C587        C588   1.403       .  A
C587       Br596   1.932       .  S
C588       Br592   1.928       .  S
C597        C598   1.408       .  A
C597        C602   1.406       .  A
C598        C599   1.410       .  A
C598       Br610   1.928       .  S
C599        C600   1.413       .  A
C599       Br614   1.929       .  S
C600        C603   1.491       .  S
C600        C601   1.411       .  A
C601        C602   1.406       .  A
C601       Br609   1.929       .  S
C602       Br613   1.930       .  S
C603        C604   1.411       .  A
C603        C608   1.409       .  A
C604        C605   1.408       .  A
C604       Br615   1.934       .  S
C605        C606   1.416       .  A
C605       Br611   1.936       .  S
C606        C607   1.418       .  A
C607        C608   1.412       .  A
C607       Br616   1.930       .  S
C608       Br612   1.932       .  S
C617        C618   1.418       .  A
C617        C622   1.425       .  A
C618        C619   1.409       .  A
C618       Br630   1.932       .  S
C619        C620   1.406       .  A
C619       Br634   1.930       .  S
C620        C623   1.493       .  S
C620        C621   1.409       .  A
C621        C622   1.414       .  A
C621       Br629   1.934       .  S
C622       Br633   1.933       .  S
C623        C624   1.409       .  A
C623        C628   1.408       .  A
C624        C625   1.411       .  A
C624       Br635   1.933       .  S
C625        C626   1.417       .  A
C625       Br631   1.927       .  S
C626        C627   1.416       .  A
C627        C628   1.412       .  A
C627       Br636   1.927       .  S
C628       Br632   1.928       .  S
C637        C638   1.408       .  A
C637        C642   1.411       .  A
C638        C639   1.408       .  A
C638       Br650   1.928       .  S
C639        C640   1.411       .  A
C639       Br654   1.929       .  S
C640        C643   1.484       .  S
C640        C641   1.408       .  A
C641        C642   1.406       .  A
C641       Br649   1.930       .  S
C642       Br653   1.932       .  S
C643        C644   1.410       .  A
C643        C648   1.408       .  A
C644        C645   1.410       .  A
C644       Br655   1.931       .  S
C645        C646   1.410       .  A
C645       Br651   1.927       .  S
C646        C647   1.412       .  A
C647        C648   1.407       .  A
C647       Br656   1.931       .  S
C648       Br652   1.930       .  S
C657        C658   1.407       .  A
C657        C662   1.411       .  A
C658        C659   1.406       .  A
C658       Br670   1.930       .  S
C659        C660   1.409       .  A
C659       Br674   1.927       .  S
C660        C663   1.474       .  S
C660        C661   1.408       .  A
C661        C662   1.400       .  A
C661       Br669   1.934       .  S
C662       Br673   1.935       .  S
C663        C664   1.407       .  A
C663        C668   1.405       .  A
C664        C665   1.403       .  A
C664       Br675   1.930       .  S
C665        C666   1.410       .  A
C665       Br671   1.927       .  S
C666        C667   1.414       .  A
C667        C668   1.403       .  A
C667       Br676   1.932       .  S
C668       Br672   1.930       .  S
C677        C678   1.411       .  A
C677        C682   1.414       .  A
C678        C679   1.403       .  A
C678       Br690   1.922       .  S
C679        C680   1.405       .  A
C679       Br694   1.931       .  S
C680        C683   1.476       .  S
C680        C681   1.408       .  A
C681        C682   1.406       .  A
C681       Br689   1.932       .  S
C682       Br693   1.930       .  S
C683        C684   1.406       .  A
C683        C688   1.404       .  A
C684        C685   1.407       .  A
C684       Br695   1.932       .  S
C685        C686   1.421       .  A
C685       Br691   1.934       .  S
C686        C687   1.414       .  A
C687        C688   1.401       .  A
C687       Br696   1.931       .  S
C688       Br692   1.930       .  S
C697        C698   1.409       .  A
C697        C702   1.410       .  A
C698        C699   1.405       .  A
C698       Br710   1.930       .  S
C699        C700   1.407       .  A
C699       Br714   1.929       .  S
C700        C703   1.476       .  S
C700        C701   1.409       .  A
C701        C702   1.403       .  A
C701       Br709   1.933       .  S
C702       Br713   1.931       .  S
C703        C704   1.405       .  A
C703        C708   1.405       .  A
C704        C705   1.408       .  A
C704       Br715   1.931       .  S
C705        C706   1.415       .  A
C705      Br1487   1.922   1_545  S
C706        C707   1.414       .  A
C707        C708   1.403       .  A
C707       Br716   1.924       .  S
C708       Br712   1.935       .  S
Br711      C1481   1.922       .  S
C717        C718   1.406       .  A
C717        C722   1.409       .  A
C718        C719   1.407       .  A
C719        C720   1.412       .  A
C719       Br734   1.928   1_556  S
C720        C723   1.483       .  S
C720        C721   1.409       .  A
C721        C722   1.403       .  A
C721       Br729   1.930       .  S
C722       Br733   1.932       .  S
C723        C724   1.407       .  A
C723        C728   1.406       .  A
C724        C725   1.406       .  A
C724       Br735   1.933       .  S
C725        C726   1.419       .  A
C725       Br731   1.932       .  S
C726        C727   1.417       .  A
C727        C728   1.410       .  A
C737        C738   1.409       .  A
C737        C742   1.407   1_556  A
C738        C739   1.407       .  A
C738       Br750   1.931       .  S
C739        C740   1.410       .  A
C739       Br754   1.930       .  S
C740        C743   1.481       .  S
C740        C741   1.408       .  A
C741        C742   1.404   1_556  A
C741       Br749   1.928   1_556  S
C743        C744   1.407       .  A
C743        C748   1.405       .  A
C744        C745   1.411       .  A
C744       Br755   1.930       .  S
C745        C746   1.419       .  A
C745       Br751   1.929       .  S
C746        C747   1.416       .  A
C747        C748   1.403       .  A
C757        C758   1.421       .  A
C757        C762   1.426   1_554  A
C758        C759   1.407       .  A
C758       Br770   1.934       .  S
C759        C760   1.404   1_554  A
C759       Br774   1.931       .  S
C760        C763   1.479       .  S
C760        C761   1.403       .  A
C761        C762   1.406       .  A
C761       Br769   1.935       .  S
C762       Br773   1.935       .  S
C763        C764   1.406       .  A
C763        C768   1.407       .  A
C764        C765   1.407       .  A
C765        C766   1.411       .  A
C766        C767   1.414       .  A
C767        C768   1.405       .  A
C767       Br776   1.930       .  S
C768       Br772   1.933       .  S
C777        N778   1.356       .  A
C777        N782   1.353       .  A
C777       C1493   1.466       .  S
N778        C779   1.357       .  A
C779        N780   1.358       .  A
C779       C1533   1.497       .  S
N780        C781   1.356       .  A
C781        N782   1.353       .  A
C781       C1513   1.460       .  S
C783        N784   1.353       .  A
C783        N788   1.352       .  A
C783       C1045   1.460       .  S
N784        C785   1.351       .  A
C785        N786   1.354       .  A
C785       C1085   1.465       .  S
N786        C787   1.356       .  A
C787        N788   1.352       .  A
C787       C1074   1.466       .  S
C789        N790   1.360       .  A
C789        N794   1.355       .  A
C789       C1025   1.473       .  S
N790        C791   1.356       .  A
C791        N792   1.357       .  A
C791        C994   1.473       .  S
N792        C793   1.358       .  A
C793        N794   1.354       .  A
C793       C1005   1.476       .  S
C795        N796   1.356       .  A
C795        N800   1.356       .  A
C795        C974   1.467       .  S
N796        C797   1.354       .  A
C797        N798   1.357       .  A
C797        C945   1.473       .  S
N798        C799   1.356       .  A
C799        N800   1.354       .  A
C799        C925   1.490       .  S
O801       Zr813   2.427       .  S
O801        C803   1.284       .  A
O802       Zr839   2.422       .  S
O802        C803   1.286       .  A
C803       C1034   1.470       .  S
O804       Zr816   2.447       .  S
O804        C806   1.289       .  A
O805      Zr2392   2.423   1_455  S
O805        C806   1.285       .  A
C806        C985   1.481       .  S
O807       Zr816   2.439       .  S
O807        C809   1.287       .  A
O808       Zr839   2.430   1_545  S
C809       C1154   1.484       .  S
O810       Zr813   2.410       .  S
O810       C2364   1.282   1_455  A
O811       Zr840   2.415       .  S
C812        C888   1.457       .  S
C812       O2362   1.283       .  A
Zr813       O814   2.435   1_565  S
Zr813      O2367   2.432       .  S
Zr813       O819   2.370   1_565  S
Zr813      O2395   2.370   1_455  S
Zr813      O2397   2.362   1_455  S
O814        H857   0.990       .  S
O815      Zr2365   2.429       .  S
O815        H856   0.989       .  S
O815       H2412   0.990       .  S
Zr816       O817   2.432       .  S
Zr816       O818   2.430       .  S
Zr816       O820   2.371       .  S
Zr816       O844   2.371       .  S
Zr816       O846   2.365   1_455  S
O817        H858   0.989       .  S
O817        H861   0.990       .  S
O818        H851   0.990       .  S
O819       Zr839   2.381   1_545  S
O820      Zr2392   2.379   1_455  S
O820        H847   0.963       .  S
O821       Zr833   2.445       .  S
O821        C823   1.288       .  A
O822        C823   1.290       .  A
C823       C1014   1.488       .  S
O824       Zr836   2.445       .  S
O825       Zr839   2.433       .  S
O825       C2766   1.288   1_455  A
C826        C874   1.471       .  S
C826       O2765   1.286   1_554  A
O827       Zr836   2.426       .  S
O827        C829   1.284       .  A
O828       Zr840   2.412       .  S
O828        C829   1.284       .  A
C829       C1114   1.464       .  S
O830       Zr833   2.424       .  S
O830        C832   1.286       .  A
O831      Zr2391   2.413       .  S
O831        C832   1.284       .  A
C832       C1134   1.461       .  S
Zr833       O834   2.432       .  S
Zr833       O835   2.434       .  S
Zr833       O841   2.364       .  S
Zr833       O842   2.373       .  S
Zr833       O845   2.372       .  S
Zr833       O843   2.364       .  S
O834        H854   0.989       .  S
O834        H859   0.989       .  S
O835        H855   0.990       .  S
Zr836      O2390   2.435       .  S
Zr836      O2398   2.383       .  S
Zr836      O2396   2.370       .  S
O837        H853   0.990       .  S
O838      Zr2388   2.434       .  S
O838        H852   0.990       .  S
O838       H2802   0.990       .  S
Zr839      O2383   2.418   1_455  S
Zr839      O2394   2.377   1_455  S
Zr839      O2397   2.387   1_455  S
Zr840      O2357   2.420       .  S
Zr840      O2372   2.385       .  S
Zr840      O2398   2.388       .  S
O841        H849   0.965       .  S
O842      Zr2391   2.379       .  S
O843      Zr2365   2.370       .  S
O844      Zr2388   2.369   1_455  S
O844        H848   0.963       .  S
O845      Zr2365   2.364       .  S
O845      Zr2391   2.387       .  S
O845        H850   0.958       .  S
O846      Zr2388   2.381       .  S
O846      Zr2392   2.383       .  S
H860       O2367   0.990       .  S
H862       O2778   0.990   1_554  S
O863       Zr875   2.434       .  S
O863        C865   1.285       .  A
O864       Zr901   2.428       .  S
O864        C865   1.287       .  A
C865        C965   1.478       .  S
O866       Zr878   2.441       .  S
O866        C868   1.288       .  A
O867      Zr2454   2.402   1_455  S
O867        C868   1.283       .  A
C868        C934   1.472       .  S
O869       Zr878   2.442       .  S
O869        C871   1.288       .  A
O870       Zr901   2.405   1_545  S
C871       C1094   1.476       .  S
O872       Zr875   2.435   1_655  S
O872       C2426   1.287       .  A
O873       Zr902   2.439       .  S
C874       O2424   1.286       .  A
Zr875       O876   2.433       .  S
Zr875      O2429   2.434   1_455  S
Zr875       O881   2.374       .  S
Zr875      O2457   2.366   1_455  S
Zr875      O2459   2.364   1_455  S
O876        H919   0.990       .  S
O877      Zr2427   2.434       .  S
O877        H918   0.990       .  S
O877       H2474   0.990       .  S
Zr878       O879   2.429       .  S
Zr878       O880   2.431       .  S
Zr878       O882   2.369       .  S
Zr878       O906   2.366       .  S
Zr878       O908   2.375       .  S
O879        H920   0.990       .  S
O879        H923   0.990       .  S
O880        H913   0.990       .  S
O881       Zr901   2.375       .  S
O882      Zr2454   2.386   1_455  S
O882        H909   0.966       .  S
O883       Zr895   2.425       .  S
O883        C885   1.284       .  A
O884        C885   1.282       .  A
C885        C954   1.458       .  S
O886       Zr898   2.423       .  S
O887       Zr901   2.412       .  S
O887       C2440   1.285   1_455  A
C888       O2439   1.287       .  A
O889       Zr898   2.420       .  S
O889        C891   1.283       .  A
O890       Zr902   2.431       .  S
O890        C891   1.288       .  A
C891       C1054   1.473       .  S
O892       Zr895   2.435       .  S
O892        C894   1.287       .  A
O893      Zr2453   2.399       .  S
O893        C894   1.282       .  A
C894       C1065   1.464       .  S
Zr895       O896   2.435       .  S
Zr895       O897   2.434       .  S
Zr895       O903   2.368       .  S
Zr895       O904   2.367       .  S
Zr895       O907   2.371       .  S
Zr895       O905   2.371       .  S
O896        H916   0.990       .  S
O896        H921   0.990       .  S
O897        H917   0.990       .  S
Zr898      O2452   2.439       .  S
Zr898      O2460   2.366       .  S
Zr898      O2458   2.359       .  S
O899        H915   0.990   1_545  S
O900      Zr2450   2.438   1_455  S
O900        H914   0.990       .  S
O900       H2476   0.990       .  S
Zr901      O2445   2.401   1_455  S
Zr901      O2456   2.377   1_455  S
Zr901      O2459   2.379   1_455  S
Zr902      O2419   2.403       .  S
Zr902      O2434   2.388       .  S
Zr902      O2460   2.382       .  S
O903        H911   0.962       .  S
O904      Zr2453   2.378       .  S
O905      Zr2427   2.366       .  S
O906      Zr2450   2.360   1_455  S
O906        H910   0.966       .  S
O907      Zr2427   2.363       .  S
O907      Zr2453   2.380       .  S
O907        H912   0.964       .  S
O908      Zr2450   2.369   1_455  S
O908      Zr2454   2.381   1_455  S
H922       O2429   0.990       .  S
H924       O2452   0.990       .  S
C925        C926   1.417       .  A
C925        C930   1.424       .  A
C926        C927   1.404       .  A
C926      Br1326   1.932       .  S
C927        C928   1.405       .  A
C927       Br942   1.934       .  S
C928        C931   1.476       .  S
C928        C929   1.404       .  A
C929        C930   1.407       .  A
C929       Br937   1.933       .  S
C930       Br941   1.936       .  S
C931        C932   1.405       .  A
C931        C936   1.408       .  A
C932        C933   1.403       .  A
C932       Br943   1.932       .  S
C933        C934   1.413       .  A
C933       Br939   1.927       .  S
C934        C935   1.412       .  A
C935        C936   1.404       .  A
C935       Br944   1.932       .  S
C936       Br940   1.929       .  S
Br938      C1314   1.934       .  S
C945        C946   1.415       .  A
C945        C950   1.413       .  A
C946        C947   1.407       .  A
C946      Br1346   1.930       .  S
C947        C948   1.407       .  A
C947      Br1350   1.930       .  S
C948        C951   1.472       .  S
C948        C949   1.405       .  A
C949        C950   1.399       .  A
C949       Br957   1.932       .  S
C950       Br961   1.936       .  S
C951        C952   1.408       .  A
C951        C956   1.409       .  A
C952        C953   1.402       .  A
C952       Br963   1.929       .  S
C953        C954   1.406       .  A
C953       Br959   1.931       .  S
C954        C955   1.405       .  A
C955        C956   1.402       .  A
C955       Br964   1.927       .  S
C956       Br960   1.930       .  S
Br958      C1334   1.931       .  S
Br962      C1335   1.930       .  S
C965        C966   1.411       .  A
C965        C970   1.414       .  A
C966        C967   1.405       .  A
C966       Br978   1.926   1_455  S
C967        C968   1.406       .  A
C967       Br982   1.931       .  S
C968        C971   1.476       .  S
C968        C969   1.406       .  A
C969        C970   1.406       .  A
C969       Br977   1.932       .  S
C970       Br981   1.930       .  S
C971        C972   1.407       .  A
C971        C976   1.408       .  A
C972        C973   1.402       .  A
C972       Br983   1.931       .  S
C973        C974   1.412       .  A
C973       Br979   1.933       .  S
C974        C975   1.409       .  A
C975        C976   1.405       .  A
C975       Br984   1.931       .  S
C976       Br980   1.928       .  S
C985        C986   1.410       .  A
C985        C990   1.411       .  A
C986        C987   1.404       .  A
C986       Br998   1.927       .  S
C987        C988   1.409       .  A
C987      Br1002   1.933       .  S
C988        C991   1.484       .  S
C988        C989   1.409       .  A
C989        C990   1.410       .  A
C989       Br997   1.927       .  S
C990      Br1001   1.924   1_455  S
C991        C992   1.408       .  A
C991        C996   1.410       .  A
C992        C993   1.406       .  A
C992      Br1003   1.930       .  S
C993        C994   1.411       .  A
C993       Br999   1.932       .  S
C994        C995   1.410       .  A
C995        C996   1.409       .  A
C995      Br1004   1.928       .  S
C996      Br1000   1.929       .  S
C1005      C1006   1.412       .  A
C1005      C1010   1.416       .  A
C1006      C1007   1.405       .  A
C1006     Br1018   1.932       .  S
C1007      C1008   1.408       .  A
C1007     Br1022   1.929       .  S
C1008      C1011   1.478       .  S
C1008      C1009   1.408       .  A
C1009      C1010   1.404       .  A
C1009     Br1017   1.935       .  S
C1010     Br1021   1.933       .  S
C1011      C1012   1.405       .  A
C1011      C1016   1.405       .  A
C1012      C1013   1.404       .  A
C1012     Br1023   1.937       .  S
C1013      C1014   1.417       .  A
C1013     Br1019   1.925       .  S
C1014      C1015   1.415       .  A
C1015      C1016   1.408       .  A
C1015     Br1024   1.926       .  S
C1016     Br1020   1.928       .  S
C1025      C1026   1.414       .  A
C1025      C1030   1.413       .  A
C1026      C1027   1.406       .  A
C1026     Br1038   1.930       .  S
C1027      C1028   1.406       .  A
C1027     Br1042   1.930       .  S
C1028      C1031   1.473       .  S
C1028      C1029   1.406       .  A
C1029      C1030   1.401       .  A
C1029     Br1037   1.933       .  S
C1030     Br1041   1.933       .  S
C1031      C1032   1.407       .  A
C1031      C1036   1.404       .  A
C1032      C1033   1.404       .  A
C1032     Br1043   1.929       .  S
C1033      C1034   1.410       .  A
C1033     Br1039   1.930       .  S
C1034      C1035   1.414       .  A
C1035      C1036   1.402       .  A
C1035     Br1044   1.929       .  S
C1036     Br1040   1.932       .  S
C1045      C1046   1.411       .  A
C1045      C1050   1.412       .  A
C1046      C1047   1.404       .  A
C1046     Br1058   1.932       .  S
C1047      C1048   1.407       .  A
C1047     Br1062   1.928       .  S
C1048      C1051   1.467       .  S
C1048      C1049   1.404       .  A
C1049      C1050   1.395       .  A
C1049     Br1057   1.935       .  S
C1050     Br1061   1.935       .  S
C1051      C1052   1.408       .  A
C1051      C1056   1.401       .  A
C1052      C1053   1.404       .  A
C1052     Br1063   1.932       .  S
C1053      C1054   1.412       .  A
C1053     Br1059   1.930       .  S
C1054      C1055   1.416       .  A
C1055      C1056   1.400       .  A
C1055     Br1064   1.928       .  S
C1056     Br1060   1.934       .  S
C1065      C1066   1.410       .  A
C1065      C1070   1.412       .  A
C1066      C1067   1.400       .  A
C1066     Br1078   1.927       .  S
C1067      C1068   1.405       .  A
C1067     Br1082   1.933       .  S
C1068      C1071   1.466       .  S
C1068      C1069   1.407       .  A
C1069      C1070   1.400       .  A
C1069     Br1077   1.935       .  S
C1070     Br1081   1.931       .  S
C1071      C1072   1.406       .  A
C1071      C1076   1.407       .  A
C1072      C1073   1.401       .  A
C1072     Br1083   1.935       .  S
C1073      C1074   1.416       .  A
C1073     Br1079   1.934       .  S
C1074      C1075   1.409       .  A
C1075      C1076   1.397       .  A
C1075     Br1084   1.932       .  S
C1076     Br1080   1.934       .  S
C1085      C1086   1.412       .  A
C1085      C1090   1.412       .  A
C1086      C1087   1.402       .  A
C1086     Br1098   1.931       .  S
C1087      C1088   1.404       .  A
C1087     Br1102   1.929       .  S
C1088      C1091   1.467       .  S
C1088      C1089   1.407       .  A
C1089      C1090   1.400       .  A
C1089     Br1097   1.935       .  S
C1090     Br1101   1.933       .  S
C1091      C1092   1.402       .  A
C1091      C1096   1.405       .  A
C1092      C1093   1.403       .  A
C1092     Br1103   1.930       .  S
C1093      C1094   1.415       .  A
C1094      C1095   1.415       .  A
C1095      C1096   1.403       .  A
C1095     Br1104   1.928       .  S
C1096     Br1100   1.936       .  S
C1105      C1165   1.465       .  S
C1105      C1106   1.411       .  A
C1105      C1110   1.413       .  A
C1106      C1107   1.403       .  A
C1106     Br1506   1.930       .  S
C1107      C1108   1.404       .  A
C1107     Br1122   1.929       .  S
C1108      C1111   1.467       .  S
C1108      C1109   1.405       .  A
C1109      C1110   1.398       .  A
C1109     Br1117   1.929       .  S
C1110     Br1121   1.937       .  S
C1111      C1112   1.404       .  A
C1111      C1116   1.408       .  A
C1112      C1113   1.399       .  A
C1112     Br1123   1.931       .  S
C1113      C1114   1.412       .  A
C1113     Br1119   1.931       .  S
C1114      C1115   1.410       .  A
C1115      C1116   1.402       .  A
C1115     Br1512   1.931       .  S
C1116     Br1508   1.932       .  S
Br1118     C1494   1.930   1_554  S
Br1120     C1504   1.931       .  S
Br1124     C1503   1.930       .  S
C1125      C1169   1.466       .  S
C1125      C1126   1.411       .  A
C1125      C1130   1.413       .  A
C1126      C1127   1.398       .  A
C1126     Br1138   1.933       .  S
C1127      C1128   1.406       .  A
C1127     Br1142   1.934       .  S
C1128      C1131   1.465       .  S
C1128      C1129   1.405       .  A
C1129      C1130   1.403       .  A
C1129     Br1137   1.931       .  S
C1130     Br1529   1.930       .  S
C1131      C1132   1.407       .  A
C1131      C1136   1.404       .  A
C1132      C1133   1.402       .  A
C1132     Br1143   1.930       .  S
C1133      C1134   1.408       .  A
C1133     Br1139   1.927       .  S
C1134      C1135   1.409       .  A
C1135      C1136   1.398       .  A
C1135     Br1532   1.927       .  S
C1136     Br1528   1.932       .  S
Br1140     C1524   1.934       .  S
Br1141     C1518   1.930       .  S
Br1144     C1523   1.929       .  S
C1145      C1167   1.477       .  S
C1145      C1146   1.409       .  A
C1145      C1150   1.412       .  A
C1146      C1147   1.406       .  A
C1146     Br1158   1.933       .  S
C1147      C1148   1.411       .  A
C1147     Br1162   1.927       .  S
C1148      C1151   1.489       .  S
C1148      C1149   1.412       .  A
C1149      C1150   1.408       .  A
C1149     Br1157   1.931       .  S
C1150     Br1161   1.932       .  S
C1151      C1152   1.409       .  A
C1151      C1156   1.409       .  A
C1152      C1153   1.410       .  A
C1152     Br1551   1.928       .  S
C1153      C1154   1.414       .  A
C1153     Br1547   1.929       .  S
C1154      C1155   1.415       .  A
C1155      C1156   1.407       .  A
C1155     Br1164   1.930       .  S
C1156     Br1160   1.933       .  S
Br1159     C1541   1.928   1_554  S
Br1163     C1540   1.927   1_554  S
C1165      N1166   1.358       .  A
C1165      N1170   1.353       .  A
N1166      C1167   1.357       .  A
C1167      N1168   1.357       .  A
N1168      C1169   1.355       .  A
C1169      N1170   1.350       .  A
C1171      N1172   1.354       .  A
C1171      N1176   1.357       .  A
C1171      C1433   1.469       .  S
N1172      C1173   1.352       .  A
C1173      N1174   1.355       .  A
C1173      C1473   1.471       .  S
N1174      C1175   1.360       .  A
C1175      N1176   1.358       .  A
C1175      C1462   1.483       .  S
C1177      N1178   1.355       .  A
C1177      N1182   1.360       .  A
C1177      C1413   1.471       .  S
N1178      C1179   1.354       .  A
C1179      N1180   1.357       .  A
C1179      C1382   1.481       .  S
N1180      C1181   1.360       .  A
C1181      N1182   1.360       .  A
C1181      C1393   1.502       .  S
C1183      N1184   1.356       .  A
C1183      N1188   1.358       .  A
C1183      C1362   1.472       .  S
N1184      C1185   1.354       .  A
C1185      N1186   1.356       .  A
C1185      C1333   1.472       .  S
N1186      C1187   1.357       .  A
C1187      N1188   1.358       .  A
C1187      C1313   1.486       .  S
O1189     Zr1201   2.443       .  S
O1189      C1191   1.287       .  A
O1190     Zr1227   2.441       .  S
O1190      C1191   1.289       .  A
C1191      C1422   1.478       .  S
O1192     Zr1204   2.432       .  S
O1192      C1194   1.285       .  A
O1193     Zr2780   2.426   1_455  S
O1193      C1194   1.286       .  A
C1194      C1373   1.467       .  S
O1195     Zr1204   2.422       .  S
O1195      C1197   1.284       .  A
O1196     Zr1227   2.434   1_545  S
C1197      C1542   1.478       .  S
O1198     Zr1201   2.439       .  S
O1198      C2752   1.287       .  A
O1199     Zr1228   2.425       .  S
C1200      C1276   1.470       .  S
C1200      O2750   1.286       .  A
Zr1201     O1202   2.435   1_565  S
Zr1201     O2755   2.434       .  S
Zr1201     O1207   2.369   1_565  S
Zr1201     O2783   2.384   1_455  S
Zr1201     O2785   2.372   1_455  S
O1202      H1245   0.990   1_545  S
O1203     Zr2753   2.433       .  S
O1203      H1244   0.989       .  S
O1203      H2800   0.990       .  S
Zr1204     O1205   2.437       .  S
Zr1204     O1206   2.434       .  S
Zr1204     O1208   2.366       .  S
Zr1204     O1232   2.368       .  S
Zr1204     O1234   2.371   1_455  S
O1205      H1246   0.990       .  S
O1205      H1249   0.990       .  S
O1206      H1239   0.990       .  S
O1207     Zr1227   2.373   1_545  S
O1208     Zr2780   2.380   1_455  S
O1208      H1235   0.966       .  S
O1209     Zr1221   2.467       .  S
O1209      C1211   1.292       .  A
O1210      C1211   1.288       .  A
C1211      C1402   1.494       .  S
O1212     Zr1224   2.463   1_554  S
O1213     Zr1227   2.419       .  S
O1213      C2378   1.287   1_456  A
C1214      C1262   1.475       .  S
C1214      O2377   1.287       .  A
O1215     Zr1224   2.467       .  S
O1215      C1217   1.293       .  A
O1216     Zr1228   2.413       .  S
O1216      C1217   1.284       .  A
C1217      C1502   1.492       .  S
O1218     Zr1221   2.445       .  S
O1218      C1220   1.290       .  A
O1219     Zr2779   2.416       .  S
O1219      C1220   1.284       .  A
C1220      C1522   1.483       .  S
Zr1221     O1222   2.432       .  S
Zr1221     O1223   2.433       .  S
Zr1221     O1229   2.361       .  S
Zr1221     O1230   2.375       .  S
Zr1221     O1233   2.378       .  S
Zr1221     O1231   2.374       .  S
O1222      H1242   0.989       .  S
O1222      H1247   0.990       .  S
O1223      H1243   0.990       .  S
Zr1224     O2778   2.433       .  S
Zr1224     O2786   2.375       .  S
Zr1224     O2784   2.376       .  S
O1225      H1241   0.990   1_556  S
O1226     Zr2776   2.435       .  S
O1226      H1240   0.990       .  S
O1226      H2414   0.990   1_556  S
Zr1227     O2771   2.414   1_455  S
Zr1227     O2782   2.383   1_455  S
Zr1227     O2785   2.387   1_455  S
Zr1228     O2745   2.426       .  S
Zr1228     O2760   2.384       .  S
Zr1228     O2786   2.386       .  S
O1229      H1237   0.965       .  S
O1230     Zr2779   2.385       .  S
O1231     Zr2753   2.386       .  S
O1232     Zr2776   2.377   1_455  S
O1232      H1236   0.961       .  S
O1233     Zr2753   2.369       .  S
O1233     Zr2779   2.388       .  S
O1233      H1238   0.961       .  S
O1234     Zr2776   2.377       .  S
O1234     Zr2780   2.386       .  S
H1248      O2755   0.990       .  S
H1250      O2390   0.989       .  S
O1251     Zr1263   2.427       .  S
O1251      C1253   1.285       .  A
O1252     Zr1289   2.420       .  S
O1252      C1253   1.286       .  A
C1253      C1353   1.468       .  S
O1254     Zr1266   2.454       .  S
O1254      C1256   1.290       .  A
O1255     Zr2842   2.398   1_455  S
O1255      C1256   1.282       .  A
C1256      C1322   1.472       .  S
O1257     Zr1266   2.453       .  S
O1257      C1259   1.290       .  A
O1258     Zr1289   2.425       .  S
C1259      C1482   1.476       .  S
O1260     Zr1263   2.451       .  S
O1260      C2814   1.289       .  A
O1261     Zr1290   2.429       .  S
C1262      O2812   1.289       .  A
Zr1263     O1264   2.433       .  S
Zr1263     O2817   2.439   1_455  S
Zr1263     O1269   2.381       .  S
Zr1263     O2845   2.363   1_455  S
Zr1263     O2847   2.373   1_455  S
O1264      H1307   0.990       .  S
O1265     Zr2815   2.436       .  S
O1265      H1306   0.990       .  S
O1265      H2862   0.990       .  S
Zr1266     O1267   2.434       .  S
Zr1266     O1268   2.432       .  S
Zr1266     O1270   2.374       .  S
Zr1266     O1294   2.375       .  S
Zr1266     O1296   2.376       .  S
O1267      H1308   0.990       .  S
O1267      H1311   0.990       .  S
O1268      H1301   0.990       .  S
O1269     Zr1289   2.390       .  S
O1270     Zr2842   2.388   1_455  S
O1270      H1297   0.963       .  S
O1271     Zr1283   2.441       .  S
O1271      C1273   1.288       .  A
O1272      C1273   1.283       .  A
C1273      C1342   1.471       .  S
O1274     Zr1286   2.418       .  S
O1275     Zr1289   2.441       .  S
O1275      C2828   1.289       .  A
C1276      O2827   1.290       .  A
O1277     Zr1286   2.427       .  S
O1277      C1279   1.284       .  A
O1278     Zr1290   2.434       .  S
O1278      C1279   1.288       .  A
C1279      C1442   1.475       .  S
O1280     Zr1283   2.437       .  S
O1280      C1282   1.287       .  A
O1281     Zr2841   2.424       .  S
O1281      C1282   1.287       .  A
C1282      C1453   1.478       .  S
Zr1283     O1284   2.434       .  S
Zr1283     O1285   2.432       .  S
Zr1283     O1291   2.367       .  S
Zr1283     O1292   2.369       .  S
Zr1283     O1295   2.375       .  S
Zr1283     O1293   2.373       .  S
O1284      H1304   0.990       .  S
O1284      H1309   0.990       .  S
O1285      H1305   0.990       .  S
Zr1286     O2840   2.436       .  S
Zr1286     O2848   2.361       .  S
Zr1286     O2846   2.370       .  S
O1287      H1303   0.989   1_545  S
O1288     Zr2838   2.436   1_455  S
O1288      H1302   0.990       .  S
O1288      H2864   0.990       .  S
Zr1289     O2833   2.422   1_455  S
Zr1289     O2844   2.378   1_455  S
Zr1289     O2847   2.392   1_455  S
Zr1290     O2807   2.394       .  S
Zr1290     O2822   2.384       .  S
Zr1290     O2848   2.374       .  S
O1291      H1299   0.970       .  S
O1292     Zr2841   2.379       .  S
O1293     Zr2815   2.369       .  S
O1294     Zr2838   2.370   1_455  S
O1294      H1298   0.964       .  S
O1295     Zr2815   2.376       .  S
O1295     Zr2841   2.389       .  S
O1295      H1300   0.965       .  S
O1296     Zr2838   2.365   1_455  S
O1296     Zr2842   2.380   1_455  S
H1310      O2817   0.990       .  S
H1312      O2840   0.990       .  S
C1313      C1314   1.417       .  A
C1313      C1318   1.421       .  A
C1314      C1315   1.405       .  A
C1315      C1316   1.409       .  A
C1315     Br1330   1.936       .  S
C1316      C1319   1.480       .  S
C1316      C1317   1.404       .  A
C1317      C1318   1.406       .  A
C1317     Br1325   1.934       .  S
C1318     Br1329   1.932       .  S
C1319      C1320   1.404       .  A
C1319      C1324   1.411       .  A
C1320      C1321   1.402       .  A
C1320     Br1331   1.930       .  S
C1321      C1322   1.412       .  A
C1321     Br1327   1.927       .  S
C1322      C1323   1.411       .  A
C1323      C1324   1.406       .  A
C1323     Br1332   1.932       .  S
C1324     Br1328   1.932       .  S
C1333      C1334   1.412       .  A
C1333      C1338   1.413       .  A
C1334      C1335   1.407       .  A
C1335      C1336   1.408       .  A
C1336      C1339   1.475       .  S
C1336      C1337   1.407       .  A
C1337      C1338   1.401       .  A
C1337     Br1345   1.935       .  S
C1338     Br1349   1.934       .  S
C1339      C1340   1.406       .  A
C1339      C1344   1.408       .  A
C1340      C1341   1.402       .  A
C1340     Br1351   1.933       .  S
C1341      C1342   1.409       .  A
C1341     Br1347   1.926       .  S
C1342      C1343   1.411       .  A
C1343      C1344   1.406       .  A
C1343     Br1352   1.927       .  S
C1344     Br1348   1.930       .  S
C1353      C1354   1.410       .  A
C1353      C1358   1.412       .  A
C1354      C1355   1.404       .  A
C1354     Br1366   1.930       .  S
C1355      C1356   1.407       .  A
C1355     Br1370   1.930       .  S
C1356      C1359   1.474       .  S
C1356      C1357   1.407       .  A
C1357      C1358   1.403       .  A
C1357     Br1365   1.930       .  S
C1358     Br1369   1.935       .  S
C1359      C1360   1.406       .  A
C1359      C1364   1.407       .  A
C1360      C1361   1.401       .  A
C1360     Br1371   1.934       .  S
C1361      C1362   1.413       .  A
C1361     Br1367   1.934       .  S
C1362      C1363   1.411       .  A
C1363      C1364   1.407       .  A
C1363     Br1372   1.930       .  S
C1364     Br1368   1.929       .  S
C1373      C1374   1.408       .  A
C1373      C1378   1.406       .  A
C1374      C1375   1.406       .  A
C1374     Br1386   1.925       .  S
C1375      C1376   1.409       .  A
C1375     Br1390   1.932       .  S
C1376      C1379   1.478       .  S
C1376      C1377   1.410       .  A
C1377      C1378   1.404       .  A
C1377     Br1385   1.931       .  S
C1378     Br1389   1.930       .  S
C1379      C1380   1.407       .  A
C1379      C1384   1.407       .  A
C1380      C1381   1.403       .  A
C1380     Br1391   1.936       .  S
C1381      C1382   1.416       .  A
C1381     Br1387   1.935       .  S
C1382      C1383   1.417       .  A
C1383      C1384   1.408       .  A
C1383     Br1392   1.931       .  S
C1384     Br1388   1.932       .  S
C1393      C1394   1.419       .  A
C1393      C1398   1.425       .  A
C1394      C1395   1.409       .  A
C1394     Br1406   1.934       .  S
C1395      C1396   1.406       .  A
C1395     Br1410   1.931       .  S
C1396      C1399   1.493       .  S
C1396      C1397   1.408       .  A
C1397      C1398   1.414       .  A
C1397     Br1405   1.933       .  S
C1398     Br1409   1.934       .  S
C1399      C1400   1.409       .  A
C1399      C1404   1.409       .  A
C1400      C1401   1.410       .  A
C1400     Br1411   1.932       .  S
C1401      C1402   1.416       .  A
C1401     Br1407   1.927       .  S
C1402      C1403   1.415       .  A
C1403      C1404   1.413       .  A
C1403     Br1412   1.927       .  S
C1404     Br1408   1.929       .  S
C1413      C1414   1.407       .  A
C1413      C1418   1.412       .  A
C1414      C1415   1.406       .  A
C1414     Br1426   1.928       .  S
C1415      C1416   1.409       .  A
C1415     Br1430   1.929       .  S
C1416      C1419   1.482       .  S
C1416      C1417   1.409       .  A
C1417      C1418   1.406       .  A
C1417     Br1425   1.930       .  S
C1418     Br1429   1.933       .  S
C1419      C1420   1.409       .  A
C1419      C1424   1.408       .  A
C1420      C1421   1.408       .  A
C1420     Br1431   1.931       .  S
C1421      C1422   1.410       .  A
C1421     Br1427   1.927       .  S
C1422      C1423   1.412       .  A
C1423      C1424   1.407       .  A
C1423     Br1432   1.931       .  S
C1424     Br1428   1.930       .  S
C1433      C1434   1.410       .  A
C1433      C1438   1.412       .  A
C1434      C1435   1.407       .  A
C1434     Br1446   1.929       .  S
C1435      C1436   1.407       .  A
C1435     Br1450   1.929       .  S
C1436      C1439   1.474       .  S
C1436      C1437   1.406       .  A
C1437      C1438   1.401       .  A
C1437     Br1445   1.933       .  S
C1438     Br1449   1.935       .  S
C1439      C1440   1.406       .  A
C1439      C1444   1.405       .  A
C1440      C1441   1.404       .  A
C1440     Br1451   1.932       .  S
C1441      C1442   1.411       .  A
C1441     Br1447   1.925       .  S
C1442      C1443   1.415       .  A
C1443      C1444   1.405       .  A
C1443     Br1452   1.931       .  S
C1444     Br1448   1.931       .  S
C1453      C1454   1.412       .  A
C1453      C1458   1.413       .  A
C1454      C1455   1.403       .  A
C1454     Br1466   1.923       .  S
C1455      C1456   1.405       .  A
C1455     Br1470   1.931       .  S
C1456      C1459   1.477       .  S
C1456      C1457   1.409       .  A
C1457      C1458   1.406       .  A
C1457     Br1465   1.932       .  S
C1458     Br1469   1.930       .  S
C1459      C1460   1.406       .  A
C1459      C1464   1.405       .  A
C1460      C1461   1.407       .  A
C1460     Br1471   1.932       .  S
C1461      C1462   1.420       .  A
C1461     Br1467   1.933       .  S
C1462      C1463   1.414       .  A
C1463      C1464   1.403       .  A
C1463     Br1472   1.932       .  S
C1464     Br1468   1.931       .  S
C1473      C1474   1.410       .  A
C1473      C1478   1.411       .  A
C1474      C1475   1.405       .  A
C1474     Br1486   1.931       .  S
C1475      C1476   1.407       .  A
C1475     Br1490   1.929       .  S
C1476      C1479   1.477       .  S
C1476      C1477   1.410       .  A
C1477      C1478   1.405       .  A
C1477     Br1485   1.934       .  S
C1478     Br1489   1.931       .  S
C1479      C1480   1.408       .  A
C1479      C1484   1.405       .  A
C1480      C1481   1.407       .  A
C1480     Br1491   1.929       .  S
C1481      C1482   1.411       .  A
C1482      C1483   1.410       .  A
C1483      C1484   1.402       .  A
C1483     Br1492   1.924       .  S
C1484     Br1488   1.932       .  S
C1493      C1494   1.406       .  A
C1493      C1498   1.409       .  A
C1494      C1495   1.407       .  A
C1495      C1496   1.412       .  A
C1495     Br1510   1.929   1_556  S
C1496      C1499   1.483       .  S
C1496      C1497   1.409       .  A
C1497      C1498   1.403       .  A
C1497     Br1505   1.930       .  S
C1498     Br1509   1.932       .  S
C1499      C1500   1.407       .  A
C1499      C1504   1.407       .  A
C1500      C1501   1.407       .  A
C1500     Br1511   1.936       .  S
C1501      C1502   1.420       .  A
C1501     Br1507   1.931       .  S
C1502      C1503   1.417       .  A
C1503      C1504   1.409       .  A
C1513      C1514   1.407       .  A
C1513      C1518   1.405   1_556  A
C1514      C1515   1.404       .  A
C1514     Br1526   1.931       .  S
C1515      C1516   1.410       .  A
C1515     Br1530   1.931       .  S
C1516      C1519   1.476       .  S
C1516      C1517   1.408       .  A
C1517      C1518   1.402   1_556  A
C1517     Br1525   1.928   1_556  S
C1519      C1520   1.405       .  A
C1519      C1524   1.406       .  A
C1520      C1521   1.407       .  A
C1520     Br1531   1.931       .  S
C1521      C1522   1.418       .  A
C1521     Br1527   1.927       .  S
C1522      C1523   1.414       .  A
C1523      C1524   1.401       .  A
C1533      C1534   1.424   1_556  A
C1533      C1538   1.426       .  A
C1534      C1535   1.407       .  A
C1534     Br1546   1.934       .  S
C1535      C1536   1.402   1_554  A
C1535     Br1550   1.933       .  S
C1536      C1539   1.475       .  S
C1536      C1537   1.402       .  A
C1537      C1538   1.404       .  A
C1537     Br1545   1.936       .  S
C1538     Br1549   1.935       .  S
C1539      C1540   1.404       .  A
C1539      C1544   1.405       .  A
C1540      C1541   1.407       .  A
C1541      C1542   1.413       .  A
C1542      C1543   1.416       .  A
C1543      C1544   1.403       .  A
C1543     Br1552   1.931       .  S
C1544     Br1548   1.934       .  S
C1553      N1554   1.357       .  A
C1553      N1558   1.352       .  A
C1553      C2269   1.465       .  S
N1554      C1555   1.358       .  A
C1555      N1556   1.357       .  A
C1555      C2309   1.496   1_556  S
N1556      C1557   1.354       .  A
C1557      N1558   1.351       .  A
C1557      C2289   1.457       .  S
C1559      N1560   1.352       .  A
C1559      N1564   1.351       .  A
C1559      C1821   1.457       .  S
N1560      C1561   1.350       .  A
C1561      N1562   1.354       .  A
C1561      C1861   1.460       .  S
N1562      C1563   1.355       .  A
C1563      N1564   1.352       .  A
C1563      C1850   1.465       .  S
C1565      N1566   1.358       .  A
C1565      N1570   1.354       .  A
C1565      C1801   1.474       .  S
N1566      C1567   1.355       .  A
C1567      N1568   1.359       .  A
C1567      C1770   1.475       .  S
N1568      C1569   1.360       .  A
C1569      N1570   1.354       .  A
C1569      C1781   1.477       .  S
C1571      N1572   1.354       .  A
C1571      N1576   1.356       .  A
C1571      C1750   1.467       .  S
N1572      C1573   1.353       .  A
C1573      N1574   1.357       .  A
C1573      C1721   1.471       .  S
N1574      C1575   1.357       .  A
C1575      N1576   1.354       .  A
C1575      C1701   1.486       .  S
O1577     Zr1589   2.430       .  S
O1577      C1579   1.285       .  A
O1578     Zr1615   2.409       .  S
O1578      C1579   1.284       .  A
C1579      C1810   1.466       .  S
O1580     Zr1592   2.451       .  S
O1580      C1582   1.289       .  A
O1581      C1582   1.288       .  A
C1582      C1761   1.486       .  S
O1583     Zr1592   2.444       .  S
O1583      C1585   1.288       .  A
O1584     Zr1615   2.436       .  S
O1584      C2361   1.289       .  A
C1585      C1930   1.487       .  S
C1585      O2360   1.289       .  A
O1586     Zr1589   2.418       .  S
O1587     Zr1616   2.413       .  S
O1587      C2364   1.285   1_545  A
C1588      C1664   1.461       .  S
C1588      O2363   1.286       .  A
Zr1589     O1590   2.436       .  S
Zr1589     O1595   2.371       .  S
Zr1589     O2372   2.366       .  S
O1590      H1633   0.990       .  S
O1591      H1632   0.989   1_455  S
Zr1592     O1593   2.430       .  S
Zr1592     O1594   2.428       .  S
Zr1592     O1596   2.369       .  S
Zr1592     O2371   2.373       .  S
Zr1592     O1620   2.370       .  S
Zr1592     O1622   2.371       .  S
O1593      H1634   0.989       .  S
O1593      H1637   0.990       .  S
O1594      H1627   0.990       .  S
O1595     Zr2368   2.377       .  S
O1595     Zr1615   2.383       .  S
O1596     Zr2365   2.367   1_545  S
O1596      H1623   0.964       .  S
O1597     Zr1609   2.432       .  S
O1597      C1599   1.286       .  A
O1598     Zr2392   2.414       .  S
O1598      C1599   1.285       .  A
C1599      C1790   1.472       .  S
O1600     Zr1612   2.439   1_565  S
O1600      C2766   1.288       .  A
O1601     Zr1615   2.428       .  S
C1602      C1650   1.467       .  S
C1602      O2764   1.290   1_554  A
O1603     Zr1612   2.425       .  S
O1603      C1605   1.284       .  A
O1604     Zr1616   2.410       .  S
O1604      C1605   1.284       .  A
C1605      C1890   1.462       .  S
O1606     Zr1609   2.430       .  S
O1606      C1608   1.286       .  A
O1607      C1608   1.284       .  A
C1608      C1910   1.465       .  S
Zr1609     O1610   2.432       .  S
Zr1609     O1611   2.435       .  S
Zr1609     O1617   2.369       .  S
Zr1609     O1618   2.369       .  S
Zr1609     O1621   2.366       .  S
Zr1609     O1619   2.369       .  S
O1610      H1630   0.989       .  S
O1610      H1635   0.989       .  S
O1611      H1631   0.990       .  S
Zr1612     O2389   2.436   1_545  S
Zr1612     O2394   2.356   1_545  S
Zr1612     O2393   2.372   1_545  S
O1613     Zr2388   2.434       .  S
O1613      H1629   0.990       .  S
O1614      H1628   0.990       .  S
Zr1615     O2396   2.384       .  S
Zr1616     O2374   2.424   1_545  S
Zr1616     O2393   2.383   1_545  S
Zr1616     O2395   2.374   1_545  S
O1617     Zr2388   2.369       .  S
O1617     Zr2392   2.390       .  S
O1617      H1625   0.966       .  S
O1618     Zr2388   2.356       .  S
O1619     Zr2392   2.378       .  S
O1620     Zr2391   2.379   1_545  S
O1620      H1624   0.962       .  S
O1621      H1626   0.958       .  S
O1639     Zr1651   2.434       .  S
O1639      C1641   1.286       .  A
O1640     Zr1677   2.426       .  S
O1640      C1641   1.287       .  A
C1641      C1741   1.476       .  S
O1642     Zr1654   2.446       .  S
O1642      C1644   1.289       .  A
O1643      C1644   1.283       .  A
C1644      C1710   1.473       .  S
O1645     Zr1654   2.457       .  S
O1645      C1647   1.291       .  A
O1646     Zr1677   2.416       .  S
O1646      C2423   1.284       .  A
C1647      C1870   1.479       .  S
C1647      O2422   1.283       .  A
O1648     Zr1651   2.430       .  S
O1649     Zr1678   2.432       .  S
O1649      C2426   1.287   1_545  A
C1650      O2425   1.286       .  A
Zr1651     O1652   2.431       .  S
Zr1651     O1657   2.370       .  S
Zr1651     O2434   2.372       .  S
O1652      H1695   0.990       .  S
O1653      H1694   0.990       .  S
Zr1654     O1655   2.426       .  S
Zr1654     O1656   2.433       .  S
Zr1654     O1658   2.372       .  S
Zr1654     O2433   2.367   1_545  S
Zr1654     O1682   2.365       .  S
Zr1654     O1684   2.375       .  S
O1655      H1696   0.990       .  S
O1655      H1699   0.989       .  S
O1656      H1689   0.990       .  S
O1657     Zr2430   2.367       .  S
O1657     Zr1677   2.374       .  S
O1658     Zr2427   2.368   1_545  S
O1658      H1685   0.965       .  S
O1659     Zr1671   2.439       .  S
O1659      C1661   1.287       .  A
O1660     Zr2454   2.409       .  S
O1660      C1661   1.282       .  A
C1661      C1730   1.465       .  S
O1662     Zr1674   2.412       .  S
O1662      C2440   1.282   1_545  A
O1663     Zr1677   2.409       .  S
C1664      O2438   1.284       .  A
O1665     Zr1674   2.419       .  S
O1665      C1667   1.283       .  A
O1666     Zr1678   2.428       .  S
O1666      C1667   1.287       .  A
C1667      C1830   1.473       .  S
O1668     Zr1671   2.432       .  S
O1668      C1670   1.286       .  A
O1669      C1670   1.283       .  A
C1670      C1841   1.467       .  S
Zr1671     O1672   2.434       .  S
Zr1671     O1673   2.432       .  S
Zr1671     O1679   2.364       .  S
Zr1671     O1680   2.369       .  S
Zr1671     O1683   2.372       .  S
Zr1671     O1681   2.370       .  S
O1672      H1692   0.990       .  S
O1672      H1697   0.990       .  S
O1673      H1693   0.990       .  S
Zr1674     O2451   2.431       .  S
Zr1674     O2456   2.373   1_545  S
Zr1674     O2455   2.369   1_545  S
O1675     Zr2450   2.430       .  S
O1675      H1691   0.990       .  S
O1676      H1690   0.990       .  S
Zr1677     O2458   2.383       .  S
Zr1678     O2436   2.412   1_545  S
Zr1678     O2455   2.381   1_545  S
Zr1678     O2457   2.374   1_545  S
O1679     Zr2450   2.372       .  S
O1679     Zr2454   2.382       .  S
O1679      H1687   0.964       .  S
O1680     Zr2450   2.371       .  S
O1681     Zr2454   2.378       .  S
O1682     Zr2453   2.381   1_545  S
O1682      H1686   0.965       .  S
O1683      H1688   0.965       .  S
C1701      C1702   1.415       .  A
C1701      C1706   1.422       .  A
C1702      C1703   1.404       .  A
C1702     Br2102   1.933       .  S
C1703      C1704   1.407       .  A
C1703     Br1718   1.933       .  S
C1704      C1707   1.477       .  S
C1704      C1705   1.405       .  A
C1705      C1706   1.406       .  A
C1705     Br1713   1.934       .  S
C1706     Br1717   1.934       .  S
C1707      C1708   1.405       .  A
C1707      C1712   1.409       .  A
C1708      C1709   1.403       .  A
C1708     Br1719   1.932       .  S
C1709      C1710   1.412       .  A
C1709     Br1715   1.926       .  S
C1710      C1711   1.411       .  A
C1711      C1712   1.405       .  A
C1711     Br1720   1.931       .  S
C1712     Br1716   1.930       .  S
Br1714     C2090   1.932       .  S
C1721      C1722   1.414       .  A
C1721      C1726   1.411       .  A
C1722      C1723   1.406       .  A
C1722     Br2122   1.930       .  S
C1723      C1724   1.406       .  A
C1723     Br2126   1.930       .  S
C1724      C1727   1.472       .  S
C1724      C1725   1.406       .  A
C1725      C1726   1.399       .  A
C1725     Br1733   1.932       .  S
C1726     Br1737   1.934       .  S
C1727      C1728   1.406       .  A
C1727      C1732   1.408       .  A
C1728      C1729   1.402       .  A
C1728     Br1739   1.929       .  S
C1729      C1730   1.407       .  A
C1729     Br1735   1.927       .  S
C1730      C1731   1.408       .  A
C1731      C1732   1.405       .  A
C1731     Br1740   1.926       .  S
C1732     Br1736   1.931       .  S
Br1734     C2110   1.930       .  S
Br1738     C2111   1.930       .  S
C1741      C1742   1.412       .  A
C1741      C1746   1.415       .  A
C1742      C1743   1.403       .  A
C1742     Br1754   1.926       .  S
C1743      C1744   1.405       .  A
C1743     Br1758   1.931       .  S
C1744      C1747   1.472       .  S
C1744      C1745   1.405       .  A
C1745      C1746   1.404       .  A
C1745     Br1753   1.932       .  S
C1746     Br1757   1.929       .  S
C1747      C1748   1.406       .  A
C1747      C1752   1.406       .  A
C1748      C1749   1.402       .  A
C1748     Br1759   1.931       .  S
C1749      C1750   1.414       .  A
C1749     Br1755   1.935       .  S
C1750      C1751   1.410       .  A
C1751      C1752   1.403       .  A
C1751     Br1760   1.931       .  S
C1752     Br1756   1.929       .  S
C1761      C1762   1.412       .  A
C1761      C1766   1.413       .  A
C1762      C1763   1.404       .  A
C1762     Br1774   1.926       .  S
C1763      C1764   1.408       .  A
C1763     Br1778   1.935       .  S
C1764      C1767   1.485       .  S
C1764      C1765   1.410       .  A
C1765      C1766   1.412       .  A
C1765     Br1773   1.928       .  S
C1766     Br1777   1.926       .  S
C1767      C1768   1.408       .  A
C1767      C1772   1.410       .  A
C1768      C1769   1.407       .  A
C1768     Br1779   1.930       .  S
C1769      C1770   1.411       .  A
C1769     Br1775   1.931       .  S
C1770      C1771   1.410       .  A
C1771      C1772   1.409       .  A
C1771     Br1780   1.929       .  S
C1772     Br1776   1.929       .  S
C1781      C1782   1.413       .  A
C1781      C1786   1.417       .  A
C1782      C1783   1.405       .  A
C1782     Br1794   1.931       .  S
C1783      C1784   1.406       .  A
C1783     Br1798   1.930       .  S
C1784      C1787   1.472       .  S
C1784      C1785   1.406       .  A
C1785      C1786   1.403       .  A
C1785     Br1793   1.937       .  S
C1786     Br1797   1.933       .  S
C1787      C1788   1.406       .  A
C1787      C1792   1.406       .  A
C1788      C1789   1.399       .  A
C1788     Br1799   1.936       .  S
C1789      C1790   1.412       .  A
C1789     Br1795   1.927       .  S
C1790      C1791   1.412       .  A
C1791      C1792   1.405       .  A
C1791     Br1800   1.928       .  S
C1792     Br1796   1.928       .  S
C1801      C1802   1.415       .  A
C1801      C1806   1.415       .  A
C1802      C1803   1.406       .  A
C1802     Br1814   1.931       .  S
C1803      C1804   1.405       .  A
C1803     Br1818   1.930       .  S
C1804      C1807   1.472       .  S
C1804      C1805   1.405       .  A
C1805      C1806   1.400       .  A
C1805     Br1813   1.932       .  S
C1806     Br1817   1.935       .  S
C1807      C1808   1.407       .  A
C1807      C1812   1.406       .  A
C1808      C1809   1.403       .  A
C1808     Br1819   1.929       .  S
C1809      C1810   1.410       .  A
C1809     Br1815   1.931       .  S
C1810      C1811   1.411       .  A
C1811      C1812   1.401       .  A
C1811     Br1820   1.930       .  S
C1812     Br1816   1.931       .  S
C1821      C1822   1.409       .  A
C1821      C1826   1.411       .  A
C1822      C1823   1.403       .  A
C1822     Br1834   1.932       .  S
C1823      C1824   1.407       .  A
C1823     Br1838   1.928       .  S
C1824      C1827   1.467       .  S
C1824      C1825   1.406       .  A
C1825      C1826   1.396       .  A
C1825     Br1833   1.934       .  S
C1826     Br1837   1.937       .  S
C1827      C1828   1.407       .  A
C1827      C1832   1.402       .  A
C1828      C1829   1.404       .  A
C1828     Br1839   1.930       .  S
C1829      C1830   1.412       .  A
C1829     Br1835   1.931       .  S
C1830      C1831   1.416       .  A
C1831      C1832   1.401       .  A
C1831     Br1840   1.929       .  S
C1832     Br1836   1.934       .  S
C1841      C1842   1.410       .  A
C1841      C1846   1.413       .  A
C1842      C1843   1.401       .  A
C1842     Br1854   1.927       .  S
C1843      C1844   1.405       .  A
C1843     Br1858   1.931       .  S
C1844      C1847   1.469       .  S
C1844      C1845   1.406       .  A
C1845      C1846   1.401       .  A
C1845     Br1853   1.933       .  S
C1846     Br1857   1.931       .  S
C1847      C1848   1.406       .  A
C1847      C1852   1.407       .  A
C1848      C1849   1.401       .  A
C1848     Br1859   1.932       .  S
C1849      C1850   1.415       .  A
C1849     Br1855   1.936       .  S
C1850      C1851   1.410       .  A
C1851      C1852   1.399       .  A
C1851     Br1860   1.933       .  S
C1852     Br1856   1.933       .  S
C1861      C1862   1.410       .  A
C1861      C1866   1.409       .  A
C1862      C1863   1.401       .  A
C1862     Br1874   1.932       .  S
C1863      C1864   1.405       .  A
C1863     Br1878   1.928       .  S
C1864      C1867   1.468       .  S
C1864      C1865   1.408       .  A
C1865      C1866   1.400       .  A
C1865     Br1873   1.933       .  S
C1866     Br1877   1.933       .  S
C1867      C1868   1.403       .  A
C1867      C1872   1.403       .  A
C1868      C1869   1.406       .  A
C1868     Br1879   1.932       .  S
C1869      C1870   1.418       .  A
C1869     Br2651   1.927   1_545  S
C1870      C1871   1.414       .  A
C1871      C1872   1.401       .  A
C1871     Br1880   1.929       .  S
C1872     Br1876   1.934       .  S
Br1875     C2645   1.928       .  S
C1881      C1941   1.468       .  S
C1881      C1882   1.412       .  A
C1881      C1886   1.413       .  A
C1882      C1883   1.403       .  A
C1882     Br2282   1.931       .  S
C1883      C1884   1.404       .  A
C1883     Br1898   1.930       .  S
C1884      C1887   1.470       .  S
C1884      C1885   1.407       .  A
C1885      C1886   1.400       .  A
C1885     Br1893   1.929       .  S
C1886     Br1897   1.936       .  S
C1887      C1888   1.406       .  A
C1887      C1892   1.407       .  A
C1888      C1889   1.401       .  A
C1888     Br1899   1.930       .  S
C1889      C1890   1.411       .  A
C1889     Br1895   1.932       .  S
C1890      C1891   1.408       .  A
C1891      C1892   1.401       .  A
C1891     Br2288   1.932   1_545  S
C1892     Br2284   1.931       .  S
Br1894     C2270   1.931   1_554  S
Br1896     C2280   1.931       .  S
Br1900     C2279   1.930       .  S
C1901      C1945   1.474       .  S
C1901      C1902   1.411       .  A
C1901      C1906   1.413       .  A
C1902      C1903   1.402       .  A
C1902     Br1914   1.932       .  S
C1903      C1904   1.407       .  A
C1903     Br1918   1.932       .  S
C1904      C1907   1.474       .  S
C1904      C1905   1.406       .  A
C1905      C1906   1.407       .  A
C1905     Br1913   1.931       .  S
C1906     Br2305   1.929       .  S
C1907      C1908   1.409       .  A
C1907      C1912   1.407       .  A
C1908      C1909   1.406       .  A
C1908     Br1919   1.930       .  S
C1909      C1910   1.407       .  A
C1909     Br1915   1.926   1_655  S
C1910      C1911   1.408       .  A
C1911      C1912   1.401       .  A
C1911     Br2308   1.929       .  S
C1912     Br2304   1.930       .  S
Br1916     C2300   1.935       .  S
Br1917     C2294   1.930   1_554  S
Br1920     C2299   1.928       .  S
C1921      C1943   1.482       .  S
C1921      C1922   1.409       .  A
C1921      C1926   1.415       .  A
C1922      C1923   1.406       .  A
C1922     Br1934   1.930       .  S
C1923      C1924   1.408       .  A
C1923     Br1938   1.927       .  S
C1924      C1927   1.486       .  S
C1924      C1925   1.410       .  A
C1925      C1926   1.408       .  A
C1925     Br1933   1.932       .  S
C1926     Br1937   1.931       .  S
C1927      C1928   1.408       .  A
C1927      C1932   1.408       .  A
C1928      C1929   1.410       .  A
C1928     Br2327   1.928       .  S
C1929      C1930   1.414       .  A
C1929     Br2323   1.928       .  S
C1930      C1931   1.415       .  A
C1931      C1932   1.407       .  A
C1931     Br1940   1.928       .  S
C1932     Br1936   1.933       .  S
Br1935     C2317   1.928   1_554  S
Br1939     C2316   1.927       .  S
C1941      N1942   1.358       .  A
C1941      N1946   1.356       .  A
N1942      C1943   1.356       .  A
C1943      N1944   1.360       .  A
N1944      C1945   1.358       .  A
C1945      N1946   1.352       .  A
C1947      N1948   1.353       .  A
C1947      N1952   1.358       .  A
C1947      C2209   1.464       .  S
N1948      C1949   1.351       .  A
C1949      N1950   1.356       .  A
C1949      C2249   1.466       .  S
N1950      C1951   1.358       .  A
C1951      N1952   1.358       .  A
C1951      C2238   1.483       .  S
C1953      N1954   1.356       .  A
C1953      N1958   1.361       .  A
C1953      C2189   1.474       .  S
N1954      C1955   1.354       .  A
C1955      N1956   1.359       .  A
C1955      C2158   1.483       .  S
N1956      C1957   1.362       .  A
C1957      N1958   1.361       .  A
C1957      C2169   1.504       .  S
C1959      N1960   1.354       .  A
C1959      N1964   1.355       .  A
C1959      C2138   1.466       .  S
N1960      C1961   1.353       .  A
C1961      N1962   1.356       .  A
C1961      C2109   1.467       .  S
N1962      C1963   1.356       .  A
C1963      N1964   1.355       .  A
C1963      C2089   1.480       .  S
O1965     Zr1977   2.446       .  S
O1965      C1967   1.287       .  A
O1966     Zr2003   2.438       .  S
O1966      C1967   1.288       .  A
C1967      C2198   1.480       .  S
O1968     Zr1980   2.434       .  S
O1968      C1970   1.285       .  A
O1969      C1970   1.286       .  A
C1970      C2149   1.468       .  S
O1971     Zr1980   2.426       .  S
O1971      C1973   1.285       .  A
O1972     Zr2003   2.428       .  S
O1972      C2749   1.287       .  A
C1973      C2318   1.477       .  S
C1973      O2748   1.288       .  A
O1974     Zr1977   2.431       .  S
O1975     Zr2004   2.432   1_565  S
O1975      C2752   1.289   1_655  A
C1976      C2052   1.469       .  S
C1976      O2751   1.289   1_455  A
Zr1977     O1978   2.437       .  S
Zr1977     O1983   2.367       .  S
Zr1977     O2760   2.373       .  S
O1978      H2021   0.990       .  S
O1979      H2020   0.989   1_455  S
Zr1980     O1981   2.438       .  S
Zr1980     O1982   2.432       .  S
Zr1980     O1984   2.365       .  S
Zr1980     O2759   2.377       .  S
Zr1980     O2008   2.367       .  S
Zr1980     O2010   2.370       .  S
O1981      H2022   0.990       .  S
O1981      H2025   0.990       .  S
O1982      H2015   0.990       .  S
O1983     Zr2756   2.379       .  S
O1983     Zr2003   2.379       .  S
O1984     Zr2753   2.367   1_545  S
O1984      H2011   0.967       .  S
O1985     Zr1997   2.469       .  S
O1985      C1987   1.292       .  A
O1986     Zr2780   2.431       .  S
O1986      C1987   1.288       .  A
C1987      C2178   1.494       .  S
O1988     Zr2000   2.459   1_554  S
O1988      C2378   1.291   1_545  A
O1989     Zr2003   2.409       .  S
C1990      C2038   1.475       .  S
C1990      O2376   1.287   1_455  A
O1991     Zr2000   2.455       .  S
O1991      C1993   1.291       .  A
O1992     Zr2004   2.423       .  S
O1992      C1993   1.286       .  A
C1993      C2278   1.493       .  S
O1994     Zr1997   2.447       .  S
O1994      C1996   1.290       .  A
O1995      C1996   1.284       .  A
C1996      C2298   1.483       .  S
Zr1997     O1998   2.432       .  S
Zr1997     O1999   2.434       .  S
Zr1997     O2005   2.365       .  S
Zr1997     O2006   2.377       .  S
Zr1997     O2009   2.375       .  S
Zr1997     O2007   2.372       .  S
O1998      H2018   0.989       .  S
O1998      H2023   0.990       .  S
O1999      H2019   0.990       .  S
Zr2000     O2777   2.436   1_545  S
Zr2000     O2782   2.371   1_545  S
Zr2000     O2781   2.372   1_545  S
O2001     Zr2776   2.436       .  S
O2001      H2017   0.990       .  S
O2002      H2016   0.990   1_554  S
Zr2003     O2784   2.391       .  S
Zr2004     O2762   2.435   1_545  S
Zr2004     O2781   2.381   1_545  S
Zr2004     O2783   2.381   1_545  S
O2005     Zr2776   2.373       .  S
O2005     Zr2780   2.382       .  S
O2005      H2013   0.965       .  S
O2006     Zr2776   2.376       .  S
O2007     Zr2780   2.381       .  S
O2008     Zr2779   2.385   1_545  S
O2008      H2012   0.961       .  S
O2009      H2014   0.961       .  S
O2027     Zr2039   2.426       .  S
O2027      C2029   1.285       .  A
O2028     Zr2065   2.432       .  S
O2028      C2029   1.288       .  A
C2029      C2129   1.473       .  S
O2030     Zr2042   2.449       .  S
O2030      C2032   1.289       .  A
O2031      C2032   1.282       .  A
C2032      C2098   1.471       .  S
O2033     Zr2042   2.444       .  S
O2033      C2035   1.289       .  A
O2034     Zr2065   2.419       .  S
O2034      C2811   1.285       .  A
C2035      C2258   1.478       .  S
C2035      O2810   1.286   1_545  A
O2036     Zr2039   2.455       .  S
O2037     Zr2066   2.428       .  S
O2037      C2814   1.287   1_645  A
C2038      O2813   1.288   1_455  A
Zr2039     O2040   2.432       .  S
Zr2039     O2045   2.379       .  S
Zr2039     O2822   2.371       .  S
O2040      H2083   0.989       .  S
O2041      H2082   0.990       .  S
Zr2042     O2043   2.434       .  S
Zr2042     O2044   2.432       .  S
Zr2042     O2046   2.372       .  S
Zr2042     O2821   2.373   1_545  S
Zr2042     O2070   2.373       .  S
Zr2042     O2072   2.369       .  S
O2043      H2084   0.990       .  S
O2043      H2087   0.990       .  S
O2044      H2077   0.989       .  S
O2045     Zr2818   2.372       .  S
O2045     Zr2065   2.388       .  S
O2046     Zr2815   2.370   1_545  S
O2046      H2073   0.964       .  S
O2047     Zr2059   2.436       .  S
O2047      C2049   1.288       .  A
O2048     Zr2842   2.409       .  S
O2048      C2049   1.283       .  A
C2049      C2118   1.470       .  S
O2050     Zr2062   2.420       .  S
O2050      C2828   1.284   1_645  A
O2051     Zr2065   2.438       .  S
C2052      O2826   1.283   1_455  A
O2053     Zr2062   2.427       .  S
O2053      C2055   1.284       .  A
O2054     Zr2066   2.430       .  S
O2054      C2055   1.287       .  A
C2055      C2218   1.475       .  S
O2056     Zr2059   2.438       .  S
O2056      C2058   1.287       .  A
O2057      C2058   1.286       .  A
C2058      C2229   1.473       .  S
Zr2059     O2060   2.428       .  S
Zr2059     O2061   2.430       .  S
Zr2059     O2067   2.365       .  S
Zr2059     O2068   2.368       .  S
Zr2059     O2071   2.368       .  S
Zr2059     O2069   2.371       .  S
O2060      H2080   0.988       .  S
O2060      H2085   0.990       .  S
O2061      H2081   0.989       .  S
Zr2062     O2839   2.429       .  S
Zr2062     O2844   2.373   1_545  S
Zr2062     O2843   2.366   1_545  S
O2063     Zr2838   2.430       .  S
O2063      H2079   0.990       .  S
O2064      H2078   0.990       .  S
Zr2065     O2846   2.390       .  S
Zr2066     O2824   2.412   1_545  S
Zr2066     O2843   2.380   1_545  S
Zr2066     O2845   2.378   1_545  S
O2067     Zr2838   2.363       .  S
O2067     Zr2842   2.377       .  S
O2067      H2075   0.969       .  S
O2068     Zr2838   2.374       .  S
O2069     Zr2842   2.379       .  S
O2070     Zr2841   2.386   1_545  S
O2070      H2074   0.964       .  S
O2071      H2076   0.966       .  S
C2089      C2090   1.414       .  A
C2089      C2094   1.418       .  A
C2090      C2091   1.404       .  A
C2091      C2092   1.409       .  A
C2091     Br2106   1.934       .  S
C2092      C2095   1.482       .  S
C2092      C2093   1.408       .  A
C2093      C2094   1.406       .  A
C2093     Br2101   1.931       .  S
C2094     Br2105   1.935       .  S
C2095      C2096   1.408       .  A
C2095      C2100   1.411       .  A
C2096      C2097   1.404       .  A
C2096     Br2107   1.927       .  S
C2097      C2098   1.410       .  A
C2097     Br2103   1.928       .  S
C2098      C2099   1.410       .  A
C2099      C2100   1.406       .  A
C2099     Br2108   1.932       .  S
C2100     Br2104   1.932       .  S
C2109      C2110   1.412       .  A
C2109      C2114   1.411       .  A
C2110      C2111   1.405       .  A
C2111      C2112   1.406       .  A
C2112      C2115   1.470       .  S
C2112      C2113   1.408       .  A
C2113      C2114   1.400       .  A
C2113     Br2121   1.934       .  S
C2114     Br2125   1.934       .  S
C2115      C2116   1.404       .  A
C2115      C2120   1.406       .  A
C2116      C2117   1.398       .  A
C2116     Br2127   1.932       .  S
C2117      C2118   1.410       .  A
C2117     Br2123   1.928       .  S
C2118      C2119   1.413       .  A
C2119      C2120   1.405       .  A
C2119     Br2128   1.924       .  S
C2120     Br2124   1.930       .  S
C2129      C2130   1.412       .  A
C2129      C2134   1.413       .  A
C2130      C2131   1.405       .  A
C2130     Br2142   1.929       .  S
C2131      C2132   1.406       .  A
C2131     Br2146   1.932       .  S
C2132      C2135   1.474       .  S
C2132      C2133   1.406       .  A
C2133      C2134   1.404       .  A
C2133     Br2141   1.930       .  S
C2134     Br2145   1.934       .  S
C2135      C2136   1.408       .  A
C2135      C2140   1.407       .  A
C2136      C2137   1.401       .  A
C2136     Br2147   1.933       .  S
C2137      C2138   1.412       .  A
C2137     Br2143   1.935       .  S
C2138      C2139   1.409       .  A
C2139      C2140   1.405       .  A
C2139     Br2148   1.931       .  S
C2140     Br2144   1.927       .  S
C2149      C2150   1.408       .  A
C2149      C2154   1.406       .  A
C2150      C2151   1.407       .  A
C2150     Br2162   1.927       .  S
C2151      C2152   1.411       .  A
C2151     Br2166   1.931       .  S
C2152      C2155   1.484       .  S
C2152      C2153   1.411       .  A
C2153      C2154   1.405       .  A
C2153     Br2161   1.929       .  S
C2154     Br2165   1.930       .  S
C2155      C2156   1.409       .  A
C2155      C2160   1.409       .  A
C2156      C2157   1.405       .  A
C2156     Br2167   1.934       .  S
C2157      C2158   1.415       .  A
C2157     Br2163   1.934       .  S
C2158      C2159   1.416       .  A
C2159      C2160   1.409       .  A
C2159     Br2168   1.931       .  S
C2160     Br2164   1.931       .  S
C2169      C2170   1.418       .  A
C2169      C2174   1.424       .  A
C2170      C2171   1.410       .  A
C2170     Br2182   1.933       .  S
C2171      C2172   1.408       .  A
C2171     Br2186   1.930       .  S
C2172      C2175   1.498       .  S
C2172      C2173   1.410       .  A
C2173      C2174   1.414       .  A
C2173     Br2181   1.932       .  S
C2174     Br2185   1.935       .  S
C2175      C2176   1.411       .  A
C2175      C2180   1.411       .  A
C2176      C2177   1.411       .  A
C2176     Br2187   1.932       .  S
C2177      C2178   1.414       .  A
C2177     Br2183   1.927       .  S
C2178      C2179   1.413       .  A
C2179      C2180   1.414       .  A
C2179     Br2188   1.926       .  S
C2180     Br2184   1.927       .  S
C2189      C2190   1.408       .  A
C2189      C2194   1.412       .  A
C2190      C2191   1.408       .  A
C2190     Br2202   1.928       .  S
C2191      C2192   1.411       .  A
C2191     Br2206   1.929       .  S
C2192      C2195   1.485       .  S
C2192      C2193   1.408       .  A
C2193      C2194   1.406       .  A
C2193     Br2201   1.930       .  S
C2194     Br2205   1.933       .  S
C2195      C2196   1.409       .  A
C2195      C2200   1.408       .  A
C2196      C2197   1.410       .  A
C2196     Br2207   1.930       .  S
C2197      C2198   1.411       .  A
C2197     Br2203   1.926       .  S
C2198      C2199   1.412       .  A
C2199      C2200   1.407       .  A
C2199     Br2208   1.930       .  S
C2200     Br2204   1.930       .  S
C2209      C2210   1.406       .  A
C2209      C2214   1.410       .  A
C2210      C2211   1.406       .  A
C2210     Br2222   1.929       .  S
C2211      C2212   1.410       .  A
C2211     Br2226   1.927       .  S
C2212      C2215   1.477       .  S
C2212      C2213   1.408       .  A
C2213      C2214   1.401       .  A
C2213     Br2221   1.932       .  S
C2214     Br2225   1.935       .  S
C2215      C2216   1.408       .  A
C2215      C2220   1.406       .  A
C2216      C2217   1.405       .  A
C2216     Br2227   1.931       .  S
C2217      C2218   1.411       .  A
C2217     Br2223   1.929       .  S
C2218      C2219   1.415       .  A
C2219      C2220   1.405       .  A
C2219     Br2228   1.931       .  S
C2220     Br2224   1.931       .  S
C2229      C2230   1.410       .  A
C2229      C2234   1.412       .  A
C2230      C2231   1.401       .  A
C2230     Br2242   1.922       .  S
C2231      C2232   1.404       .  A
C2231     Br2246   1.931       .  S
C2232      C2235   1.476       .  S
C2232      C2233   1.410       .  A
C2233      C2234   1.406       .  A
C2233     Br2241   1.931       .  S
C2234     Br2245   1.931       .  S
C2235      C2236   1.405       .  A
C2235      C2240   1.405       .  A
C2236      C2237   1.406       .  A
C2236     Br2247   1.932       .  S
C2237      C2238   1.419       .  A
C2237     Br2243   1.932       .  S
C2238      C2239   1.415       .  A
C2239      C2240   1.403       .  A
C2239     Br2248   1.931       .  S
C2240     Br2244   1.932       .  S
C2249      C2250   1.409       .  A
C2249      C2254   1.409       .  A
C2250      C2251   1.405       .  A
C2250     Br2262   1.929       .  S
C2251      C2252   1.408       .  A
C2251     Br2266   1.930       .  S
C2252      C2255   1.474       .  S
C2252      C2253   1.409       .  A
C2253      C2254   1.402       .  A
C2253     Br2261   1.932       .  S
C2254     Br2265   1.933       .  S
C2255      C2256   1.405       .  A
C2255      C2260   1.404       .  A
C2256      C2257   1.407       .  A
C2256     Br2267   1.929       .  S
C2257      C2258   1.413       .  A
C2257     Br3039   1.922   1_545  S
C2258      C2259   1.411       .  A
C2259      C2260   1.401       .  A
C2259     Br2268   1.925       .  S
C2260     Br2264   1.933       .  S
Br2263     C3033   1.923       .  S
C2269      C2270   1.406       .  A
C2269      C2274   1.408       .  A
C2270      C2271   1.408       .  A
C2271      C2272   1.413       .  A
C2271     Br2286   1.928   1_556  S
C2272      C2275   1.485       .  S
C2272      C2273   1.410       .  A
C2273      C2274   1.403       .  A
C2273     Br2281   1.929       .  S
C2274     Br2285   1.933       .  S
C2275      C2276   1.407       .  A
C2275      C2280   1.407       .  A
C2276      C2277   1.407       .  A
C2276     Br2287   1.934       .  S
C2277      C2278   1.419       .  A
C2277     Br2283   1.931       .  S
C2278      C2279   1.418       .  A
C2279      C2280   1.411       .  A
C2289      C2290   1.407       .  A
C2289      C2294   1.405       .  A
C2290      C2291   1.403       .  A
C2290     Br2302   1.931       .  S
C2291      C2292   1.409       .  A
C2291     Br2306   1.930       .  S
C2292      C2295   1.473       .  S
C2292      C2293   1.407       .  A
C2293      C2294   1.401       .  A
C2293     Br2301   1.928   1_556  S
C2295      C2296   1.404       .  A
C2295      C2300   1.405       .  A
C2296      C2297   1.407       .  A
C2296     Br2307   1.931       .  S
C2297      C2298   1.419       .  A
C2297     Br2303   1.927   1_655  S
C2298      C2299   1.414       .  A
C2299      C2300   1.401       .  A
C2309      C2310   1.424       .  A
C2309      C2314   1.426   1_554  A
C2310      C2311   1.406       .  A
C2310     Br2322   1.935       .  S
C2311      C2312   1.402   1_554  A
C2311     Br2326   1.933       .  S
C2312      C2315   1.476       .  S
C2312      C2313   1.402       .  A
C2313      C2314   1.405       .  A
C2313     Br2321   1.935       .  S
C2314     Br2325   1.935       .  S
C2315      C2316   1.404   1_556  A
C2315      C2320   1.406       .  A
C2316      C2317   1.407   1_554  A
C2317      C2318   1.414       .  A
C2318      C2319   1.415       .  A
C2319      C2320   1.403       .  A
C2319     Br2328   1.933       .  S
C2320     Br2324   1.933       .  S
C2329      N2330   1.355       .  A
C2329      N2334   1.354       .  A
C2329      C3045   1.467       .  S
N2330      C2331   1.356       .  A
C2331      N2332   1.357       .  A
C2331      C3085   1.499       .  S
N2332      C2333   1.355       .  A
C2333      N2334   1.353       .  A
C2333      C3065   1.460       .  S
C2335      N2336   1.352       .  A
C2335      N2340   1.349       .  A
C2335      C2597   1.456       .  S
N2336      C2337   1.351       .  A
C2337      N2338   1.355       .  A
C2337      C2637   1.463       .  S
N2338      C2339   1.357       .  A
C2339      N2340   1.350       .  A
C2339      C2626   1.462       .  S
C2341      N2342   1.358       .  A
C2341      N2346   1.353       .  A
C2341      C2577   1.471       .  S
N2342      C2343   1.355       .  A
C2343      N2344   1.358       .  A
C2343      C2546   1.471       .  S
N2344      C2345   1.358       .  A
C2345      N2346   1.353       .  A
C2345      C2557   1.478       .  S
C2347      N2348   1.355       .  A
C2347      N2352   1.354       .  A
C2347      C2526   1.462       .  S
N2348      C2349   1.352       .  A
C2349      N2350   1.357       .  A
C2349      C2497   1.473       .  S
N2350      C2351   1.357       .  A
C2351      N2352   1.352       .  A
C2351      C2477   1.483       .  S
O2353     Zr2365   2.429       .  S
O2353      C2355   1.285       .  A
O2354     Zr2391   2.418       .  S
O2354      C2355   1.286       .  A
C2355      C2586   1.469       .  S
O2356     Zr2368   2.457       .  S
O2356      C2358   1.290       .  A
O2357      C2358   1.285       .  A
C2358      C2537   1.482       .  S
O2359     Zr2368   2.449       .  S
O2359      C2361   1.289       .  A
O2360     Zr2391   2.434   1_545  S
C2361      C2706   1.491       .  S
O2362     Zr2365   2.417       .  S
O2363     Zr2392   2.423       .  S
C2364      C2440   1.453       .  S
Zr2365     O2366   2.435   1_565  S
Zr2365     O2371   2.367   1_565  S
O2366      H2409   0.990   1_545  S
O2367      H2408   0.989   1_455  S
Zr2368     O2369   2.432       .  S
Zr2368     O2370   2.429       .  S
Zr2368     O2372   2.367       .  S
Zr2368     O2396   2.375       .  S
Zr2368     O2398   2.372       .  S
O2369      H2410   0.989       .  S
O2369      H2413   0.990       .  S
O2370      H2403   0.990       .  S
O2371     Zr2391   2.376   1_545  S
O2372      H2399   0.963       .  S
O2373     Zr2385   2.443       .  S
O2373      C2375   1.288       .  A
O2374      C2375   1.287       .  A
C2375      C2566   1.480       .  S
O2376     Zr2388   2.441       .  S
O2377     Zr2391   2.428       .  S
C2378      C2426   1.475       .  S
O2379     Zr2388   2.423       .  S
O2379      C2381   1.284       .  A
O2380     Zr2392   2.406       .  S
O2380      C2381   1.283       .  A
C2381      C2666   1.461       .  S
O2382     Zr2385   2.423       .  S
O2382      C2384   1.285       .  A
O2383      C2384   1.285       .  A
C2384      C2686   1.463       .  S
Zr2385     O2386   2.430       .  S
Zr2385     O2387   2.431       .  S
Zr2385     O2393   2.368       .  S
Zr2385     O2394   2.372       .  S
Zr2385     O2397   2.371       .  S
Zr2385     O2395   2.361       .  S
O2386      H2406   0.989       .  S
O2386      H2411   0.990       .  S
O2387      H2407   0.990       .  S
O2389      H2405   0.990       .  S
O2390      H2404   0.990       .  S
O2393      H2401   0.966       .  S
O2396      H2400   0.962       .  S
O2397      H2402   0.958       .  S
O2415     Zr2427   2.427       .  S
O2415      C2417   1.284       .  A
O2416     Zr2453   2.432       .  S
O2416      C2417   1.288       .  A
C2417      C2517   1.476       .  S
O2418     Zr2430   2.445       .  S
O2418      C2420   1.289       .  A
O2419      C2420   1.283       .  A
C2420      C2486   1.472       .  S
O2421     Zr2430   2.445       .  S
O2421      C2423   1.289       .  A
O2422     Zr2453   2.406   1_545  S
C2423      C2646   1.479       .  S
O2424     Zr2427   2.427       .  S
O2425     Zr2454   2.425       .  S
Zr2427     O2428   2.431       .  S
Zr2427     O2433   2.373       .  S
O2428      H2471   0.990   1_565  S
O2429      H2470   0.990       .  S
Zr2430     O2431   2.429       .  S
Zr2430     O2432   2.430       .  S
Zr2430     O2434   2.371       .  S
Zr2430     O2458   2.367       .  S
Zr2430     O2460   2.372       .  S
O2431      H2472   0.990       .  S
O2431      H2475   0.990       .  S
O2432      H2465   0.990       .  S
O2433     Zr2453   2.377       .  S
O2434      H2461   0.966       .  S
O2435     Zr2447   2.426       .  S
O2435      C2437   1.285       .  A
O2436      C2437   1.283       .  A
C2437      C2506   1.462       .  S
O2438     Zr2450   2.424       .  S
O2439     Zr2453   2.420       .  S
O2441     Zr2450   2.423       .  S
O2441      C2443   1.283       .  A
O2442     Zr2454   2.422       .  S
O2442      C2443   1.286       .  A
C2443      C2606   1.469       .  S
O2444     Zr2447   2.430       .  S
O2444      C2446   1.286       .  A
O2445      C2446   1.282       .  A
C2446      C2617   1.462       .  S
Zr2447     O2448   2.435       .  S
Zr2447     O2449   2.434       .  S
Zr2447     O2455   2.366       .  S
Zr2447     O2456   2.366       .  S
Zr2447     O2459   2.373       .  S
Zr2447     O2457   2.370       .  S
O2448      H2468   0.990       .  S
O2448      H2473   0.990       .  S
O2449      H2469   0.990       .  S
O2451      H2467   0.990   1_545  S
O2452      H2466   0.990       .  S
O2455      H2463   0.964       .  S
O2458      H2462   0.965       .  S
O2459      H2464   0.964       .  S
C2477      C2478   1.413       .  A
C2477      C2482   1.423       .  A
C2478      C2479   1.401       .  A
C2478     Br2878   1.933       .  S
C2479      C2480   1.405       .  A
C2479     Br2494   1.933       .  S
C2480      C2483   1.473       .  S
C2480      C2481   1.404       .  A
C2481      C2482   1.406       .  A
C2481     Br2489   1.934       .  S
C2482     Br2493   1.935       .  S
C2483      C2484   1.405       .  A
C2483      C2488   1.408       .  A
C2484      C2485   1.401       .  A
C2484     Br2495   1.933       .  S
C2485      C2486   1.412       .  A
C2485     Br2491   1.928       .  S
C2486      C2487   1.413       .  A
C2487      C2488   1.404       .  A
C2487     Br2496   1.931       .  S
C2488     Br2492   1.932       .  S
Br2490     C2866   1.934       .  S
C2497      C2498   1.414       .  A
C2497      C2502   1.412       .  A
C2498      C2499   1.407       .  A
C2498     Br2898   1.930       .  S
C2499      C2500   1.407       .  A
C2499     Br2902   1.930       .  S
C2500      C2503   1.473       .  S
C2500      C2501   1.406       .  A
C2501      C2502   1.399       .  A
C2501     Br2509   1.932       .  S
C2502     Br2513   1.935       .  S
C2503      C2504   1.407       .  A
C2503      C2508   1.409       .  A
C2504      C2505   1.402       .  A
C2504     Br2515   1.930       .  S
C2505      C2506   1.407       .  A
C2505     Br2511   1.928       .  S
C2506      C2507   1.406       .  A
C2507      C2508   1.403       .  A
C2507     Br2516   1.927       .  S
C2508     Br2512   1.930       .  S
Br2510     C2886   1.931       .  S
Br2514     C2887   1.929       .  S
C2517      C2518   1.411       .  A
C2517      C2522   1.414       .  A
C2518      C2519   1.405       .  A
C2518     Br2530   1.924       .  S
C2519      C2520   1.406       .  A
C2519     Br2534   1.930       .  S
C2520      C2523   1.472       .  S
C2520      C2521   1.404       .  A
C2521      C2522   1.403       .  A
C2521     Br2529   1.932       .  S
C2522     Br2533   1.928       .  S
C2523      C2524   1.407       .  A
C2523      C2528   1.408       .  A
C2524      C2525   1.400       .  A
C2524     Br2535   1.931       .  S
C2525      C2526   1.412       .  A
C2525     Br2531   1.935       .  S
C2526      C2527   1.409       .  A
C2527      C2528   1.403       .  A
C2527     Br2536   1.932       .  S
C2528     Br2532   1.928       .  S
C2537      C2538   1.410       .  A
C2537      C2542   1.412       .  A
C2538      C2539   1.404       .  A
C2538     Br2550   1.925       .  S
C2539      C2540   1.408       .  A
C2539     Br2554   1.932       .  S
C2540      C2543   1.483       .  S
C2540      C2541   1.409       .  A
C2541      C2542   1.411       .  A
C2541     Br2549   1.928       .  S
C2542     Br2553   1.925       .  S
C2543      C2544   1.409       .  A
C2543      C2548   1.411       .  A
C2544      C2545   1.404       .  A
C2544     Br2555   1.930       .  S
C2545      C2546   1.409       .  A
C2545     Br2551   1.933       .  S
C2546      C2547   1.409       .  A
C2547      C2548   1.409       .  A
C2547     Br2556   1.929       .  S
C2548     Br2552   1.929       .  S
C2557      C2558   1.412       .  A
C2557      C2562   1.418       .  A
C2558      C2559   1.405       .  A
C2558     Br2570   1.932       .  S
C2559      C2560   1.407       .  A
C2559     Br2574   1.930       .  S
C2560      C2563   1.477       .  S
C2560      C2561   1.407       .  A
C2561      C2562   1.405       .  A
C2561     Br2569   1.934       .  S
C2562     Br2573   1.935       .  S
C2563      C2564   1.406       .  A
C2563      C2568   1.407       .  A
C2564      C2565   1.402       .  A
C2564     Br2575   1.936       .  S
C2565      C2566   1.414       .  A
C2565     Br2571   1.925       .  S
C2566      C2567   1.413       .  A
C2567      C2568   1.407       .  A
C2567     Br2576   1.928       .  S
C2568     Br2572   1.928       .  S
C2577      C2578   1.414       .  A
C2577      C2582   1.413       .  A
C2578      C2579   1.406       .  A
C2578     Br2590   1.932       .  S
C2579      C2580   1.406       .  A
C2579     Br2594   1.930       .  S
C2580      C2583   1.471       .  S
C2580      C2581   1.405       .  A
C2581      C2582   1.400       .  A
C2581     Br2589   1.933       .  S
C2582     Br2593   1.934       .  S
C2583      C2584   1.408       .  A
C2583      C2588   1.404       .  A
C2584      C2585   1.404       .  A
C2584     Br2595   1.929       .  S
C2585      C2586   1.410       .  A
C2585     Br2591   1.930       .  S
C2586      C2587   1.412       .  A
C2587      C2588   1.400       .  A
C2587     Br2596   1.927       .  S
C2588     Br2592   1.932       .  S
C2597      C2598   1.410       .  A
C2597      C2602   1.410       .  A
C2598      C2599   1.402       .  A
C2598     Br2610   1.934       .  S
C2599      C2600   1.408       .  A
C2599     Br2614   1.928       .  S
C2600      C2603   1.466       .  S
C2600      C2601   1.405       .  A
C2601      C2602   1.395       .  A
C2601     Br2609   1.934       .  S
C2602     Br2613   1.936       .  S
C2603      C2604   1.407       .  A
C2603      C2608   1.402       .  A
C2604      C2605   1.402       .  A
C2604     Br2615   1.931       .  S
C2605      C2606   1.410       .  A
C2605     Br2611   1.930       .  S
C2606      C2607   1.415       .  A
C2607      C2608   1.401       .  A
C2607     Br2616   1.929       .  S
C2608     Br2612   1.934       .  S
C2617      C2618   1.409       .  A
C2617      C2622   1.411       .  A
C2618      C2619   1.398       .  A
C2618     Br2630   1.927       .  S
C2619      C2620   1.405       .  A
C2619     Br2634   1.932       .  S
C2620      C2623   1.466       .  S
C2620      C2621   1.408       .  A
C2621      C2622   1.400       .  A
C2621     Br2629   1.935       .  S
C2622     Br2633   1.932       .  S
C2623      C2624   1.406       .  A
C2623      C2628   1.408       .  A
C2624      C2625   1.400       .  A
C2624     Br2635   1.934       .  S
C2625      C2626   1.415       .  A
C2625     Br2631   1.935       .  S
C2626      C2627   1.408       .  A
C2627      C2628   1.397       .  A
C2627     Br2636   1.932       .  S
C2628     Br2632   1.934       .  S
C2637      C2638   1.410       .  A
C2637      C2642   1.410       .  A
C2638      C2639   1.402       .  A
C2638     Br2650   1.932       .  S
C2639      C2640   1.405       .  A
C2639     Br2654   1.929       .  S
C2640      C2643   1.469       .  S
C2640      C2641   1.408       .  A
C2641      C2642   1.401       .  A
C2641     Br2649   1.933       .  S
C2642     Br2653   1.933       .  S
C2643      C2644   1.403       .  A
C2643      C2648   1.403       .  A
C2644      C2645   1.406       .  A
C2644     Br2655   1.930       .  S
C2645      C2646   1.417       .  A
C2646      C2647   1.415       .  A
C2647      C2648   1.401       .  A
C2647     Br2656   1.927       .  S
C2648     Br2652   1.934       .  S
C2657      C2717   1.466       .  S
C2657      C2658   1.411       .  A
C2657      C2662   1.412       .  A
C2658      C2659   1.403       .  A
C2658     Br3058   1.931       .  S
C2659      C2660   1.405       .  A
C2659     Br2674   1.929       .  S
C2660      C2663   1.469       .  S
C2660      C2661   1.406       .  A
C2661      C2662   1.399       .  A
C2661     Br2669   1.928       .  S
C2662     Br2673   1.936       .  S
C2663      C2664   1.404       .  A
C2663      C2668   1.409       .  A
C2664      C2665   1.400       .  A
C2664     Br2675   1.930       .  S
C2665      C2666   1.412       .  A
C2665     Br2671   1.932       .  S
C2666      C2667   1.408       .  A
C2667      C2668   1.401       .  A
C2667     Br3064   1.933       .  S
C2668     Br3060   1.931       .  S
Br2670     C3046   1.930   1_554  S
Br2672     C3056   1.932       .  S
Br2676     C3055   1.930       .  S
C2677      C2721   1.471       .  S
C2677      C2678   1.411       .  A
C2677      C2682   1.415       .  A
C2678      C2679   1.400       .  A
C2678     Br2690   1.934       .  S
C2679      C2680   1.406       .  A
C2679     Br2694   1.932       .  S
C2680      C2683   1.470       .  S
C2680      C2681   1.404       .  A
C2681      C2682   1.405       .  A
C2681     Br2689   1.932       .  S
C2682     Br3081   1.930       .  S
C2683      C2684   1.407       .  A
C2683      C2688   1.404       .  A
C2684      C2685   1.404       .  A
C2684     Br2695   1.929       .  S
C2685      C2686   1.408       .  A
C2685     Br2691   1.925   1_655  S
C2686      C2687   1.409       .  A
C2687      C2688   1.400       .  A
C2687     Br3084   1.929       .  S
C2688     Br3080   1.930       .  S
Br2692     C3076   1.934       .  S
Br2693     C3070   1.929       .  S
Br2696     C3075   1.926       .  S
C2697      C2719   1.481       .  S
C2697      C2698   1.410       .  A
C2697      C2702   1.414       .  A
C2698      C2699   1.408       .  A
C2698     Br2710   1.932       .  S
C2699      C2700   1.410       .  A
C2699     Br2714   1.926       .  S
C2700      C2703   1.490       .  S
C2700      C2701   1.409       .  A
C2701      C2702   1.408       .  A
C2701     Br2709   1.930       .  S
C2702     Br2713   1.930       .  S
C2703      C2704   1.409       .  A
C2703      C2708   1.409       .  A
C2704      C2705   1.412       .  A
C2704     Br3103   1.928       .  S
C2705      C2706   1.415       .  A
C2705     Br3099   1.928       .  S
C2706      C2707   1.416       .  A
C2707      C2708   1.408       .  A
C2707     Br2716   1.929       .  S
C2708     Br2712   1.934       .  S
Br2711     C3093   1.928   1_554  S
Br2715     C3092   1.926   1_554  S
C2717      N2718   1.359       .  A
C2717      N2722   1.354       .  A
N2718      C2719   1.357       .  A
C2719      N2720   1.358       .  A
N2720      C2721   1.357       .  A
C2721      N2722   1.350       .  A
C2723      N2724   1.353       .  A
C2723      N2728   1.358       .  A
C2723      C2985   1.468       .  S
N2724      C2725   1.352       .  A
C2725      N2726   1.357       .  A
C2725      C3025   1.468       .  S
N2726      C2727   1.361       .  A
C2727      N2728   1.359       .  A
C2727      C3014   1.491       .  S
C2729      N2730   1.358       .  A
C2729      N2734   1.362       .  A
C2729      C2965   1.477       .  S
N2730      C2731   1.357       .  A
C2731      N2732   1.360       .  A
C2731      C2934   1.488       .  S
N2732      C2733   1.361       .  A
C2733      N2734   1.361       .  A
C2733      C2945   1.507       .  S
C2735      N2736   1.355       .  A
C2735      N2740   1.356       .  A
C2735      C2914   1.470       .  S
N2736      C2737   1.354       .  A
C2737      N2738   1.355       .  A
C2737      C2885   1.468       .  S
N2738      C2739   1.356       .  A
C2739      N2740   1.356       .  A
C2739      C2865   1.481       .  S
O2741     Zr2753   2.446       .  S
O2741      C2743   1.287       .  A
O2742     Zr2779   2.436       .  S
O2742      C2743   1.288       .  A
C2743      C2974   1.480       .  S
O2744     Zr2756   2.436       .  S
O2744      C2746   1.286       .  A
O2745      C2746   1.286       .  A
C2746      C2925   1.469       .  S
O2747     Zr2756   2.427       .  S
O2747      C2749   1.285       .  A
O2748     Zr2779   2.433   1_545  S
C2749      C3094   1.473       .  S
O2750     Zr2753   2.433       .  S
O2751     Zr2780   2.430       .  S
C2752      C2828   1.471       .  S
Zr2753     O2754   2.434   1_565  S
Zr2753     O2759   2.366   1_565  S
O2754      H2797   0.990   1_545  S
O2755      H2796   0.989   1_455  S
Zr2756     O2757   2.438       .  S
Zr2756     O2758   2.435       .  S
Zr2756     O2760   2.368       .  S
Zr2756     O2784   2.372       .  S
Zr2756     O2786   2.369       .  S
O2757      H2798   0.990       .  S
O2757      H2801   0.990       .  S
O2758      H2791   0.990       .  S
O2759     Zr2779   2.376   1_545  S
O2760      H2787   0.966       .  S
O2761     Zr2773   2.468       .  S
O2761      C2763   1.293       .  A
O2762      C2763   1.289       .  A
C2763      C2954   1.498       .  S
O2764     Zr2776   2.453       .  S
O2765     Zr2779   2.413       .  S
C2766      C2814   1.475   1_655  S
O2767     Zr2776   2.463       .  S
O2767      C2769   1.292       .  A
O2768     Zr2780   2.420       .  S
O2768      C2769   1.285       .  A
C2769      C3054   1.494       .  S
O2770     Zr2773   2.450       .  S
O2770      C2772   1.290       .  A
O2771      C2772   1.284       .  A
C2772      C3074   1.481       .  S
Zr2773     O2774   2.428       .  S
Zr2773     O2775   2.433       .  S
Zr2773     O2781   2.363       .  S
Zr2773     O2782   2.374       .  S
Zr2773     O2785   2.373       .  S
Zr2773     O2783   2.375       .  S
O2774      H2794   0.989       .  S
O2774      H2799   0.990       .  S
O2775      H2795   0.990       .  S
O2777      H2793   0.990   1_556  S
O2778      H2792   0.990       .  S
O2781      H2789   0.966       .  S
O2784      H2788   0.961       .  S
O2785      H2790   0.963       .  S
O2803     Zr2815   2.432       .  S
O2803      C2805   1.286       .  A
O2804     Zr2841   2.429       .  S
O2804      C2805   1.287       .  A
C2805      C2905   1.473       .  S
O2806     Zr2818   2.450       .  S
O2806      C2808   1.289       .  A
O2807      C2808   1.281       .  A
C2808      C2874   1.468       .  S
O2809     Zr2818   2.446       .  S
O2809      C2811   1.289       .  A
O2810     Zr2841   2.422       .  S
C2811      C3034   1.475       .  S
O2812     Zr2815   2.450       .  S
O2813     Zr2842   2.428       .  S
Zr2815     O2816   2.435       .  S
Zr2815     O2821   2.377       .  S
O2816      H2859   0.990   1_565  S
O2817      H2858   0.990       .  S
Zr2818     O2819   2.433       .  S
Zr2818     O2820   2.432       .  S
Zr2818     O2822   2.373       .  S
Zr2818     O2846   2.374       .  S
Zr2818     O2848   2.369       .  S
O2819      H2860   0.990       .  S
O2819      H2863   0.990       .  S
O2820      H2853   0.989       .  S
O2821     Zr2841   2.387       .  S
O2822      H2849   0.964       .  S
O2823     Zr2835   2.440       .  S
O2823      C2825   1.288       .  A
O2824      C2825   1.284       .  A
C2825      C2894   1.473       .  S
O2826     Zr2838   2.415       .  S
O2827     Zr2841   2.444       .  S
O2829     Zr2838   2.427       .  S
O2829      C2831   1.284       .  A
O2830     Zr2842   2.435       .  S
O2830      C2831   1.288       .  A
C2831      C2994   1.474       .  S
O2832     Zr2835   2.437       .  S
O2832      C2834   1.286       .  A
O2833      C2834   1.287       .  A
C2834      C3005   1.478       .  S
Zr2835     O2836   2.432       .  S
Zr2835     O2837   2.433       .  S
Zr2835     O2843   2.364       .  S
Zr2835     O2844   2.370       .  S
Zr2835     O2847   2.371       .  S
Zr2835     O2845   2.372       .  S
O2836      H2856   0.990       .  S
O2836      H2861   0.990       .  S
O2837      H2857   0.990       .  S
O2839      H2855   0.990   1_545  S
O2840      H2854   0.990       .  S
O2843      H2851   0.971       .  S
O2846      H2850   0.964       .  S
O2847      H2852   0.966       .  S
C2865      C2866   1.414       .  A
C2865      C2870   1.418       .  A
C2866      C2867   1.403       .  A
C2867      C2868   1.409       .  A
C2867     Br2882   1.934       .  S
C2868      C2871   1.481       .  S
C2868      C2869   1.407       .  A
C2869      C2870   1.406       .  A
C2869     Br2877   1.932       .  S
C2870     Br2881   1.934       .  S
C2871      C2872   1.408       .  A
C2871      C2876   1.412       .  A
C2872      C2873   1.402       .  A
C2872     Br2883   1.928       .  S
C2873      C2874   1.409       .  A
C2873     Br2879   1.928       .  S
C2874      C2875   1.409       .  A
C2875      C2876   1.405       .  A
C2875     Br2884   1.933       .  S
C2876     Br2880   1.931       .  S
C2885      C2886   1.411       .  A
C2885      C2890   1.412       .  A
C2886      C2887   1.406       .  A
C2887      C2888   1.407       .  A
C2888      C2891   1.474       .  S
C2888      C2889   1.408       .  A
C2889      C2890   1.402       .  A
C2889     Br2897   1.933       .  S
C2890     Br2901   1.934       .  S
C2891      C2892   1.406       .  A
C2891      C2896   1.407       .  A
C2892      C2893   1.401       .  A
C2892     Br2903   1.933       .  S
C2893      C2894   1.410       .  A
C2893     Br2899   1.927       .  S
C2894      C2895   1.413       .  A
C2895      C2896   1.406       .  A
C2895     Br2904   1.925   1_565  S
C2896     Br2900   1.929       .  S
C2905      C2906   1.411       .  A
C2905      C2910   1.412       .  A
C2906      C2907   1.406       .  A
C2906     Br2918   1.929       .  S
C2907      C2908   1.408       .  A
C2907     Br2922   1.931       .  S
C2908      C2911   1.478       .  S
C2908      C2909   1.407       .  A
C2909      C2910   1.404       .  A
C2909     Br2917   1.930       .  S
C2910     Br2921   1.933       .  S
C2911      C2912   1.408       .  A
C2911      C2916   1.408       .  A
C2912      C2913   1.402       .  A
C2912     Br2923   1.933       .  S
C2913      C2914   1.413       .  A
C2913     Br2919   1.935       .  S
C2914      C2915   1.410       .  A
C2915      C2916   1.407       .  A
C2915     Br2924   1.931       .  S
C2916     Br2920   1.927       .  S
C2925      C2926   1.406       .  A
C2925      C2930   1.406       .  A
C2926      C2927   1.407       .  A
C2926     Br2938   1.927       .  S
C2927      C2928   1.411       .  A
C2927     Br2942   1.928       .  S
C2928      C2931   1.487       .  S
C2928      C2929   1.412       .  A
C2929      C2930   1.406       .  A
C2929     Br2937   1.929       .  S
C2930     Br2941   1.930       .  S
C2931      C2932   1.409       .  A
C2931      C2936   1.409       .  A
C2932      C2933   1.406       .  A
C2932     Br2943   1.934       .  S
C2933      C2934   1.416       .  A
C2933     Br2939   1.935       .  S
C2934      C2935   1.417       .  A
C2935      C2936   1.413       .  A
C2935     Br2944   1.930       .  S
C2936     Br2940   1.931       .  S
C2945      C2946   1.419       .  A
C2945      C2950   1.424       .  A
C2946      C2947   1.412       .  A
C2946     Br2958   1.933       .  S
C2947      C2948   1.409       .  A
C2947     Br2962   1.930       .  S
C2948      C2951   1.501       .  S
C2948      C2949   1.411       .  A
C2949      C2950   1.415       .  A
C2949     Br2957   1.932       .  S
C2950     Br2961   1.934       .  S
C2951      C2952   1.410       .  A
C2951      C2956   1.412       .  A
C2952      C2953   1.411       .  A
C2952     Br2963   1.933       .  S
C2953      C2954   1.416       .  A
C2953     Br2959   1.925       .  S
C2954      C2955   1.415       .  A
C2955      C2956   1.416       .  A
C2955     Br2964   1.930       .  S
C2956     Br2960   1.927       .  S
C2965      C2966   1.408       .  A
C2965      C2970   1.412       .  A
C2966      C2967   1.409       .  A
C2966     Br2978   1.928       .  S
C2967      C2968   1.411       .  A
C2967     Br2982   1.929       .  S
C2968      C2971   1.486       .  S
C2968      C2969   1.408       .  A
C2969      C2970   1.407       .  A
C2969     Br2977   1.931       .  S
C2970     Br2981   1.931       .  S
C2971      C2972   1.410       .  A
C2971      C2976   1.407       .  A
C2972      C2973   1.411       .  A
C2972     Br2983   1.930       .  S
C2973      C2974   1.411       .  A
C2973     Br2979   1.928       .  S
C2974      C2975   1.413       .  A
C2975      C2976   1.407       .  A
C2975     Br2984   1.931       .  S
C2976     Br2980   1.930       .  S
C2985      C2986   1.408       .  A
C2985      C2990   1.412       .  A
C2986      C2987   1.407       .  A
C2986     Br2998   1.928       .  S
C2987      C2988   1.409       .  A
C2987     Br3002   1.928       .  S
C2988      C2991   1.476       .  S
C2988      C2989   1.406       .  A
C2989      C2990   1.402       .  A
C2989     Br2997   1.933       .  S
C2990     Br3001   1.933       .  S
C2991      C2992   1.408       .  A
C2991      C2996   1.405       .  A
C2992      C2993   1.405       .  A
C2992     Br3003   1.930       .  S
C2993      C2994   1.410       .  A
C2993     Br2999   1.928   1_655  S
C2994      C2995   1.416       .  A
C2995      C2996   1.405       .  A
C2995     Br3004   1.932       .  S
C2996     Br3000   1.932       .  S
C3005      C3006   1.411       .  A
C3005      C3010   1.414       .  A
C3006      C3007   1.404       .  A
C3006     Br3018   1.924       .  S
C3007      C3008   1.405       .  A
C3007     Br3022   1.930       .  S
C3008      C3011   1.480       .  S
C3008      C3009   1.409       .  A
C3009      C3010   1.407       .  A
C3009     Br3017   1.931       .  S
C3010     Br3021   1.930       .  S
C3011      C3012   1.406       .  A
C3011      C3016   1.404       .  A
C3012      C3013   1.410       .  A
C3012     Br3023   1.932       .  S
C3013      C3014   1.421       .  A
C3013     Br3019   1.932       .  S
C3014      C3015   1.414       .  A
C3015      C3016   1.404       .  A
C3015     Br3024   1.930       .  S
C3016     Br3020   1.931       .  S
C3025      C3026   1.410       .  A
C3025      C3030   1.411       .  A
C3026      C3027   1.404       .  A
C3026     Br3038   1.930       .  S
C3027      C3028   1.406       .  A
C3027     Br3042   1.930       .  S
C3028      C3031   1.472       .  S
C3028      C3029   1.408       .  A
C3029      C3030   1.403       .  A
C3029     Br3037   1.934       .  S
C3030     Br3041   1.931       .  S
C3031      C3032   1.406       .  A
C3031      C3036   1.404       .  A
C3032      C3033   1.406       .  A
C3032     Br3043   1.930       .  S
C3033      C3034   1.412       .  A
C3034      C3035   1.411       .  A
C3035      C3036   1.400       .  A
C3035     Br3044   1.923       .  S
C3036     Br3040   1.934       .  S
C3045      C3046   1.405       .  A
C3045      C3050   1.409       .  A
C3046      C3047   1.406       .  A
C3047      C3048   1.412       .  A
C3047     Br3062   1.928   1_556  S
C3048      C3051   1.485       .  S
C3048      C3049   1.411       .  A
C3049      C3050   1.405       .  A
C3049     Br3057   1.930       .  S
C3050     Br3061   1.932       .  S
C3051      C3052   1.407       .  A
C3051      C3056   1.408       .  A
C3052      C3053   1.406       .  A
C3052     Br3063   1.934       .  S
C3053      C3054   1.420       .  A
C3053     Br3059   1.932       .  S
C3054      C3055   1.418       .  A
C3055      C3056   1.411       .  A
C3065      C3066   1.407       .  A
C3065      C3070   1.406   1_556  A
C3066      C3067   1.403       .  A
C3066     Br3078   1.930       .  S
C3067      C3068   1.409       .  A
C3067     Br3082   1.931       .  S
C3068      C3071   1.473       .  S
C3068      C3069   1.407       .  A
C3069      C3070   1.402   1_556  A
C3069     Br3077   1.928   1_556  S
C3071      C3072   1.405       .  A
C3071      C3076   1.404       .  A
C3072      C3073   1.407       .  A
C3072     Br3083   1.931       .  S
C3073      C3074   1.417       .  A
C3073     Br3079   1.928   1_655  S
C3074      C3075   1.414       .  A
C3075      C3076   1.401       .  A
C3085      C3086   1.425   1_556  A
C3085      C3090   1.427       .  A
C3086      C3087   1.406       .  A
C3086     Br3098   1.936       .  S
C3087      C3088   1.402   1_554  A
C3087     Br3102   1.933       .  S
C3088      C3091   1.477       .  S
C3088      C3089   1.403       .  A
C3089      C3090   1.406       .  A
C3089     Br3097   1.934       .  S
C3090     Br3101   1.938       .  S
C3091      C3092   1.405       .  A
C3091      C3096   1.407       .  A
C3092      C3093   1.406       .  A
C3093      C3094   1.412       .  A
C3094      C3095   1.413       .  A
C3095      C3096   1.403       .  A
C3095     Br3104   1.932       .  S
C3096     Br3100   1.932       .  S
