geometry optimzed in LAMMPS
_audit_creation_date              2020-11-30 
_audit_creation_method            'lammps2cif' 
_symmetry_space_group_name_H-M    'P1' 
_symmetry_Int_Tables_number       1 
_symmetry_cell_setting            triclinic 
loop_ 
_symmetry_equiv_pos_as_xyz 
  x,y,z 
_cell_length_a                    53.155140604869665 
_cell_length_b                    52.16756619004801 
_cell_length_c                    30.77438832190035 
_cell_angle_alpha                 91.68970451820731 
_cell_angle_beta                  88.90211022868696 
_cell_angle_gamma                 121.9893404230297 
loop_ 
_atom_site_label 
_atom_site_type_symbol 
_atom_site_fract_x 
_atom_site_fract_y 
_atom_site_fract_z 
_atom_site_charge 
C1          C  0.49342174  0.02356707  0.50653834     0.02850
C2          C  0.47337140  0.49216069  0.50877813    -0.13300
C3          C  0.48358833  0.47232293  0.00976842     0.00350
C4          C  0.01414566  0.48417376  0.01146647    -0.11830
C5          C  0.03465893  0.01538746  0.00833379     0.02840
C6          C  0.02409394  0.03496473  0.50517481    -0.11250
H7          H  0.44970318  0.48299575  0.50851745     0.08430
H8          H  0.02200777  0.46890417  0.01411375     0.05960
H9          H  0.03962788  0.05886507  0.50051913     0.05810
C10         C  0.40111496  0.34260866  0.00328439     0.02850
C11         C  0.39051221  0.32765056  0.46286492    -0.13300
C12         C  0.37386258  0.29603227  0.45982565     0.00350
C13         C  0.36729652  0.27924338  0.99757617    -0.11830
C14         C  0.37824184  0.29369445  0.03799168     0.02840
C15         C  0.39501911  0.32539731  0.04077756    -0.11250
H16         H  0.39587363  0.34058934  0.43349422     0.08430
H17         H  0.35486891  0.25477149  0.99520662     0.05960
H18         H  0.40443187  0.33656940  0.07174325     0.05810
C19         C  0.44086914  0.09620373  0.99375467     0.02850
C20         C  0.43734186  0.10740760  0.45461973    -0.13300
C21         C  0.42121056  0.12188024  0.45390478     0.00350
C22         C  0.41007925  0.12618193  0.99350077    -0.11830
C23         C  0.41441314  0.11615927  0.03274311     0.02840
C24         C  0.42985031  0.10126408  0.03272954    -0.11250
H25         H  0.44726754  0.10486762  0.42509527     0.08430
H26         H  0.39751509  0.13709947  0.99397575     0.05960
H27         H  0.43257431  0.09285718  0.06298492     0.05810
O28         O  0.27815197  0.14004059  0.28609666    -0.85630
O29         O  0.32354379  0.19816709  0.30285647    -0.82680
C30         C  0.34963181  0.22063742  0.30652789     0.97830
O31         O  0.36959294  0.22351354  0.28028779    -0.82710
O32         O  0.38069048  0.17995992  0.30301104    -0.85360
C33         C  0.37617431  0.15408942  0.30881387     1.02360
O34         O  0.35855517  0.13219059  0.28399891    -0.78120
O35         O  0.30390669  0.12124911  0.30875300    -0.78310
C36         C  0.28267660  0.12526787  0.31352481     1.02310
O37         O  0.29080921  0.15120072  0.19436891    -0.85630
O38         O  0.33210824  0.21090145  0.21185977    -0.82510
C39         C  0.35312291  0.21714854  0.18558799     0.97850
O40         O  0.36868880  0.20581369  0.19035510    -0.82720
O41         O  0.38430075  0.16567664  0.21218314    -0.85330
C42         C  0.36822534  0.14290866  0.18760474     1.02320
O43         O  0.34082112  0.12634436  0.19490851    -0.78140
O44         O  0.28447422  0.10935752  0.21921369    -0.78290
C45         C  0.27862645  0.12292774  0.19148138     1.02290
Cr46       Cr  0.30808210  0.17424968  0.24877165     1.93740
Cr47       Cr  0.37295328  0.19164601  0.24670353     1.93210
Cr48       Cr  0.32282737  0.12513735  0.25163845     1.39100
O49         O  0.33467401  0.16374778  0.24919863    -1.23380
C50         C  0.15861814  0.05269435  0.00048014     0.02850
C51         C  0.17284385  0.05630501  0.04023510    -0.13300
C52         C  0.20338012  0.06816353  0.04153793     0.00350
C53         C  0.21956157  0.07487321  0.00273242    -0.11830
C54         C  0.20601982  0.07215695  0.46261894     0.02840
C55         C  0.17547573  0.06124220  0.46186895    -0.11250
H56         H  0.16050630  0.05156464  0.07048030     0.08430
H57         H  0.24328227  0.08444644  0.00419650     0.05960
H58         H  0.16512940  0.06097089  0.43171626     0.05810
C59         C  0.23655341  0.08363407  0.34652791    -0.09440
C60         C  0.26269915  0.11208568  0.35095316     0.06760
C61         C  0.27021819  0.12694242  0.39173649    -0.03210
C62         C  0.25114022  0.11382568  0.42707711    -0.07660
C63         C  0.22491599  0.08514743  0.42323114     0.05870
C64         C  0.21788014  0.06985426  0.38235823    -0.02680
Br65       Br  0.18482386  0.02929673  0.37403081    -0.02380
H66         H  0.23110917  0.07171957  0.31536006     0.09780
H67         H  0.25703981  0.12612352  0.45793665     0.07800
Br68       Br  0.30676160  0.16473011  0.40115937    -0.02800
C69         C  0.23194227  0.06494335  0.10241671    -0.09440
C70         C  0.21956948  0.07971196  0.08294124     0.06760
C71         C  0.22529352  0.10742026  0.10071245    -0.03210
C72         C  0.24366830  0.12030424  0.13681326    -0.07660
C73         C  0.25691806  0.10619026  0.15602702     0.05870
C74         C  0.25039267  0.07779852  0.13889507    -0.02680
Br75       Br  0.26743181  0.05636321  0.16124541    -0.02380
H76         H  0.22788424  0.04378447  0.08847511     0.09780
H77         H  0.24813631  0.14194981  0.14927034     0.07800
Br78       Br  0.21027371  0.12973220  0.07479597    -0.02800
C79         C  0.42181532  0.13846517  0.10764804    -0.09440
C80         C  0.40241534  0.12117082  0.07366961     0.06760
C81         C  0.37193538  0.10983270  0.07859414    -0.03210
C82         C  0.36154828  0.11702455  0.11605592    -0.07660
C83         C  0.38094713  0.13531622  0.14963202     0.05870
C84         C  0.41141583  0.14556748  0.14550778    -0.02680
Br85       Br  0.43986964  0.16823610  0.19048872    -0.02380
H86         H  0.44525810  0.14688057  0.10439638     0.09780
H87         H  0.33803646  0.10842184  0.11857656     0.07800
Br88       Br  0.34328989  0.08349300  0.03584378    -0.02800
C89         C  0.41590927  0.15997743  0.41431956    -0.09440
C90         C  0.41493133  0.13241075  0.41295143     0.06760
C91         C  0.40426387  0.11430391  0.37451141    -0.03210
C92         C  0.39321306  0.12279995  0.34070308    -0.07660
C93         C  0.39181717  0.14889178  0.34378332     0.05870
C94         C  0.40412036  0.16809622  0.38085456    -0.02680
Br95       Br  0.40326349  0.20420961  0.39046336    -0.02380
H96         H  0.42464270  0.17477969  0.44276599     0.09780
H97         H  0.38453745  0.10805787  0.31217883     0.07800
Br98       Br  0.40092754  0.07621794  0.36578244    -0.02800
C99         C  0.37560187  0.23598682  0.11301719    -0.09440
C100        C  0.35992264  0.23788539  0.14903617     0.06760
C101        C  0.35182411  0.25974861  0.14912382    -0.03210
C102        C  0.35847975  0.27813453  0.11304292    -0.07660
C103        C  0.37326833  0.27536838  0.07669500     0.05870
C104        C  0.38242003  0.25449985  0.07730703    -0.02680
Br105      Br  0.40551747  0.25122949  0.03114258    -0.02380
H106        H  0.38256412  0.21987302  0.11239899     0.09780
H107        H  0.35180444  0.29447431  0.11314824     0.07800
Br108      Br  0.33301800  0.26691658  0.19781981    -0.02800
C109        C  0.39023235  0.28592249  0.38894267    -0.09440
C110        C  0.36683188  0.28025373  0.41703332     0.06760
C111        C  0.33774065  0.25741323  0.40591128    -0.03210
C112        C  0.33269865  0.23945154  0.36865629    -0.07660
C113        C  0.35631082  0.24337561  0.34199538     0.05870
C114        C  0.38534906  0.26786575  0.35167630    -0.02680
Br115      Br  0.41977412  0.27781764  0.31723046    -0.02380
H116        H  0.41271300  0.30365385  0.39716951     0.09780
H117        H  0.31008218  0.22165974  0.36139715     0.07800
Br118      Br  0.30415396  0.24970662  0.44068695    -0.02800
C119        C  0.07599757  0.51171134  0.47611984    -0.09440
C120        C  0.06683143  0.02657688  0.00508865     0.06760
C121        C  0.08827469  0.05032853  0.03182461    -0.03210
C122        C  0.11800475  0.05894202  0.02872151    -0.07660
C123        C  0.12703417  0.04366431  0.00043818     0.05870
C124        C  0.10558236  0.51964338  0.47415561    -0.02680
Br125      Br  0.11466450  0.49491916  0.43819496    -0.02380
H126        H  0.05988961  0.49319859  0.45560171     0.09780
H127        H  0.13414106  0.07730213  0.04944435     0.07800
Br128      Br  0.07840617  0.06988768  0.07647447    -0.02800
C129        C  0.44530552  0.38944830  0.47583455    -0.09440
C130        C  0.42139787  0.37596850  0.00516927     0.06760
C131        C  0.41751194  0.39459460  0.03519047    -0.03210
C132        C  0.43805837  0.42583592  0.03648795    -0.07660
C133        C  0.46228677  0.43915714  0.00762761     0.05870
C134        C  0.46529459  0.42066036  0.47628980    -0.02680
Br135      Br  0.99475127  0.43665357  0.43095928    -0.02380
H136        H  0.44843164  0.37559649  0.45213265     0.09780
H137        H  0.43501768  0.43982501  0.06003093     0.07800
Br138      Br  0.38361148  0.37905572  0.07300878    -0.02800
C139        C  0.47898706  0.08755705  0.02360680    -0.09440
C140        C  0.45557065  0.07869225  0.99454306     0.06760
C141        C  0.44470205  0.05156347  0.47021351    -0.03210
C142        C  0.45850012  0.03516104  0.47281009    -0.07660
C143        C  0.48172491  0.04374392  0.00214442     0.05870
C144        C  0.99144950  0.06994773  0.02851052    -0.02680
Br145      Br  0.01844739  0.08072869  0.07572405    -0.02380
H146        H  0.98670578  0.10758744  0.04406558     0.09780
H147        H  0.45000927  0.01467289  0.45315982     0.07800
Br148      Br  0.40824224  0.03283153  0.43879181    -0.02800
C149        C  0.49342624  0.02357427  0.00653624     0.02850
C150        C  0.47342254  0.49216923  0.00873775    -0.13300
C151        C  0.48355837  0.47233180  0.50980508     0.00350
C152        C  0.01412070  0.48420445  0.51150318    -0.11830
C153        C  0.03465344  0.01537795  0.50833415     0.02840
C154        C  0.02409855  0.03497328  0.00517185    -0.11250
H155        H  0.44975695  0.48301859  0.00848224     0.08430
H156        H  0.02200010  0.46894913  0.51414483     0.05960
H157        H  0.03963159  0.05887358  0.00051424     0.05810
C158        C  0.40112384  0.34261014  0.50329334     0.02850
C159        C  0.39049853  0.32764634  0.96285889    -0.13300
C160        C  0.37384829  0.29602813  0.95982360     0.00350
C161        C  0.36730961  0.27924520  0.49757605    -0.11830
C162        C  0.37825119  0.29369395  0.53799369     0.02840
C163        C  0.39502633  0.32539646  0.54078408    -0.11250
H164        H  0.39585899  0.34058300  0.93348618     0.08430
H165        H  0.35488262  0.25477338  0.49520361     0.05960
H166        H  0.40443495  0.33656685  0.57175229     0.05810
C167        C  0.44087781  0.09621068  0.49375265     0.02850
C168        C  0.43733329  0.10740044  0.95462184    -0.13300
C169        C  0.42120164  0.12187245  0.95390679     0.00350
C170        C  0.41008892  0.12619020  0.49349935    -0.11830
C171        C  0.41442297  0.11616761  0.53274173     0.02840
C172        C  0.42985988  0.10127205  0.53272781    -0.11250
H173        H  0.44725954  0.10486114  0.92509745     0.08430
H174        H  0.39752451  0.13710745  0.49397478     0.05960
H175        H  0.43258359  0.09286480  0.56298306     0.05810
O176        O  0.27815060  0.14003556  0.78609186    -0.85630
O177        O  0.32353983  0.19816214  0.80285375    -0.82680
C178        C  0.34962739  0.22063277  0.80652786     0.97830
O179        O  0.36959008  0.22350976  0.78029029    -0.82710
O180        O  0.38068742  0.17995615  0.80301376    -0.85360
C181        C  0.37617231  0.15408592  0.80881438     1.02360
O182        O  0.35855511  0.13218800  0.78399671    -0.78120
O183        O  0.30390593  0.12124493  0.80874917    -0.78310
C184        C  0.28267599  0.12526396  0.81352103     1.02310
O185        O  0.29080972  0.15119676  0.69436428    -0.85630
O186        O  0.33210731  0.21089739  0.71185747    -0.82510
C187        C  0.35312342  0.21714555  0.68558810     0.97850
O188        O  0.36869017  0.20581200  0.69035766    -0.82720
O189        O  0.38430217  0.16567557  0.71218562    -0.85330
C190        C  0.36822807  0.14290870  0.68760449     1.02320
O191        O  0.34082352  0.12634358  0.69490584    -0.78140
O192        O  0.28447498  0.10935381  0.71920928    -0.78290
C193        C  0.27862715  0.12292381  0.69147675     1.02290
Cr194      Cr  0.30808071  0.17424528  0.74876808     1.93740
Cr195      Cr  0.37295257  0.19164345  0.74670591     1.93210
Cr196      Cr  0.32282777  0.12513436  0.75163523     1.39100
O197        O  0.33467342  0.16374453  0.74919709    -1.23380
C198        C  0.15861490  0.05268752  0.50047937     0.02850
C199        C  0.17284111  0.05629809  0.54023405    -0.13300
C200        C  0.20337760  0.06815719  0.54153642     0.00350
C201        C  0.21955889  0.07486788  0.50273075    -0.11830
C202        C  0.20602258  0.07216144  0.96262013     0.02840
C203        C  0.17547885  0.06124780  0.96186986    -0.11250
H204        H  0.16050372  0.05155706  0.57047948     0.08430
H205        H  0.24327972  0.08444176  0.50419449     0.05960
H206        H  0.16513263  0.06097622  0.93171688     0.05810
C207        C  0.23655285  0.08363300  0.84652775    -0.09440
C208        C  0.26269976  0.11208372  0.85095090     0.06760
C209        C  0.27022085  0.12694161  0.89173341    -0.03210
C210        C  0.25114364  0.11382695  0.92707529    -0.07660
C211        C  0.22491827  0.08514954  0.92323146     0.05870
C212        C  0.21788043  0.06985511  0.88235938    -0.02680
Br213      Br  0.18482247  0.02929824  0.87403448    -0.02380
H214        H  0.23110700  0.07171765  0.81536051     0.09780
H215        H  0.25704469  0.12612579  0.95793404     0.07800
Br216      Br  0.30676590  0.16472806  0.90115367    -0.02800
C217        C  0.23194160  0.06493819  0.60241388    -0.09440
C218        C  0.21956760  0.07970599  0.58293937     0.06760
C219        C  0.22529212  0.10741462  0.60070996    -0.03210
C220        C  0.24366799  0.12029942  0.63680957    -0.07660
C221        C  0.25691855  0.10618604  0.65602267     0.05870
C222        C  0.25039322  0.07779426  0.63889096    -0.02680
Br223      Br  0.26743426  0.05636032  0.66123972    -0.02380
H224        H  0.22788366  0.04377933  0.58847239     0.09780
H225        H  0.24813611  0.14194510  0.64926630     0.07800
Br226      Br  0.21027160  0.12972602  0.57479384    -0.02800
C227        C  0.42182231  0.13847143  0.60764832    -0.09440
C228        C  0.40242368  0.12117769  0.57366822     0.06760
C229        C  0.37194330  0.10983816  0.57859142    -0.03210
C230        C  0.36155446  0.11702775  0.61605352    -0.07660
C231        C  0.38095185  0.13531861  0.64963145     0.05870
C232        C  0.41142106  0.14557156  0.64550837    -0.02680
Br233      Br  0.43987331  0.16823965  0.69049133    -0.02380
H234        H  0.44526539  0.14688796  0.60439786     0.09780
H235        H  0.33804235  0.10842383  0.61857299     0.07800
Br236      Br  0.34329940  0.08349929  0.53583878    -0.02800
C237        C  0.41590458  0.15997166  0.91432121    -0.09440
C238        C  0.41492403  0.13240375  0.91295364     0.06760
C239        C  0.40425603  0.11429672  0.87451409    -0.03210
C240        C  0.39320747  0.12279418  0.84070484    -0.07660
C241        C  0.39181392  0.14888737  0.84378429     0.05870
C242        C  0.40411765  0.16809186  0.88085540    -0.02680
Br243      Br  0.40326461  0.20420745  0.89046293    -0.02380
H244        H  0.42463840  0.17477372  0.94276781     0.09780
H245        H  0.38453135  0.10805194  0.81218083     0.07800
Br246      Br  0.40091508  0.07620842  0.86578778    -0.02800
C247        C  0.37560773  0.23598610  0.61302116    -0.09440
C248        C  0.35992411  0.23788220  0.64903613     0.06760
C249        C  0.35182254  0.25974296  0.64911990    -0.03210
C250        C  0.35848038  0.27812947  0.61303935    -0.07660
C251        C  0.37327401  0.27536621  0.57669583     0.05870
C252        C  0.38242794  0.25449969  0.57731137    -0.02680
Br253      Br  0.40553118  0.25123314  0.53115265    -0.02380
H254        H  0.38257206  0.21987399  0.61240591     0.09780
H255        H  0.35180311  0.29446767  0.61314157     0.07800
Br256      Br  0.33300912  0.26690688  0.69780989    -0.02800
C257        C  0.39022183  0.28591772  0.88894456    -0.09440
C258        C  0.36681975  0.28024795  0.91703255     0.06760
C259        C  0.33772950  0.25740625  0.90590853    -0.03210
C260        C  0.33268999  0.23944477  0.86865395    -0.07660
C261        C  0.35630382  0.24337024  0.84199555     0.05870
C262        C  0.38534110  0.26786127  0.85167877    -0.02680
Br263      Br  0.41976813  0.27781516  0.81723658    -0.02380
H264        H  0.41270182  0.30365003  0.89717288     0.09780
H265        H  0.31007416  0.22165217  0.86139306     0.07800
Br266      Br  0.30414092  0.24969830  0.94068038    -0.02800
C267        C  0.07601608  0.51162480  0.97609218    -0.09440
C268        C  0.06682640  0.02656717  0.50509022     0.06760
C269        C  0.08826966  0.05031811  0.53182747    -0.03210
C270        C  0.11800004  0.05893240  0.52872367    -0.07660
C271        C  0.12703028  0.04365644  0.50043819     0.05870
C272        C  0.10559055  0.51952055  0.97414831    -0.02680
Br273      Br  0.11464932  0.49477828  0.93818512    -0.02380
H274        H  0.05990152  0.49312491  0.95556323     0.09780
H275        H  0.13413605  0.07729197  0.54944753     0.07800
Br276      Br  0.07840107  0.06987536  0.57648012    -0.02800
C277        C  0.44529911  0.38943628  0.97580748    -0.09440
C278        C  0.42139943  0.37597068  0.50518706     0.06760
C279        C  0.41750102  0.39458795  0.53520865    -0.03210
C280        C  0.43803961  0.42583068  0.53651526    -0.07660
C281        C  0.46227218  0.43916274  0.50766276     0.05870
C282        C  0.46529579  0.42064646  0.97625403    -0.02680
Br283      Br  0.99474622  0.43662617  0.93091407    -0.02380
H284        H  0.44841621  0.37557807  0.95210589     0.09780
H285        H  0.43498819  0.43981280  0.56005752     0.07800
Br286      Br  0.38359227  0.37903502  0.57301289    -0.02800
C287        C  0.47899362  0.08755936  0.52360260    -0.09440
C288        C  0.45557648  0.07869601  0.49454092     0.06760
C289        C  0.44470079  0.05156206  0.97021149    -0.03210
C290        C  0.45850334  0.03516409  0.97280526    -0.07660
C291        C  0.48172249  0.04373933  0.50214725     0.05870
C292        C  0.99145226  0.06994652  0.52850849    -0.02680
Br293      Br  0.01845283  0.08072918  0.57571871    -0.02380
H294        H  0.98671596  0.10759169  0.54405837     0.09780
H295        H  0.45001604  0.01467743  0.95315247     0.07800
Br296      Br  0.40824107  0.03282619  0.93878896    -0.02800
C297        C  0.49339123  0.52357858  0.50654203     0.02850
C298        C  0.47340053  0.99214916  0.50877841    -0.13300
C299        C  0.48359203  0.97232737  0.00981157     0.00350
C300        C  0.01415420  0.98419920  0.01150753    -0.11830
C301        C  0.03466708  0.51535731  0.00829234     0.02840
C302        C  0.02406376  0.53497856  0.50518011    -0.11250
H303        H  0.44973259  0.98298566  0.50851933     0.08430
H304        H  0.02203299  0.96894365  0.01415358     0.05960
H305        H  0.03959662  0.55887958  0.50052821     0.05810
C306        C  0.40112682  0.84261126  0.00329603     0.02850
C307        C  0.39051641  0.82763776  0.46286448    -0.13300
C308        C  0.37385556  0.79601897  0.45982260     0.00350
C309        C  0.36728383  0.77924766  0.99756587    -0.11830
C310        C  0.37823098  0.79368966  0.03798532     0.02840
C311        C  0.39502003  0.82539172  0.04078262    -0.11250
H312        H  0.39588326  0.84057838  0.43349478     0.08430
H313        H  0.35484653  0.75477583  0.99518850     0.05960
H314        H  0.40443201  0.83655654  0.07175247     0.05810
C315        C  0.44089138  0.59621445  0.99375596     0.02850
C316        C  0.43732490  0.60742881  0.45463334    -0.13300
C317        C  0.42119193  0.62189940  0.45391551     0.00350
C318        C  0.41006934  0.62616118  0.99352744    -0.11830
C319        C  0.41441686  0.61614384  0.03276563     0.02840
C320        C  0.42987293  0.60126657  0.03273952    -0.11250
H321        H  0.44726005  0.60489734  0.42511351     0.08430
H322        H  0.39749443  0.63706726  0.99401141     0.05960
H323        H  0.43260955  0.59286440  0.06299026     0.05810
O324        O  0.27812375  0.64002283  0.28608783    -0.85630
O325        O  0.32350865  0.69815913  0.30282981    -0.82680
C326        C  0.34959757  0.72062938  0.30650160     0.97830
O327        O  0.36955802  0.72350477  0.28026048    -0.82710
O328        O  0.38066941  0.67996598  0.30300376    -0.85360
C329        C  0.37615822  0.65409870  0.30881720     1.02360
O330        O  0.35853993  0.63219398  0.28401105    -0.78120
O331        O  0.30388864  0.62124805  0.30876446    -0.78310
C332        C  0.28265436  0.62526137  0.31352808     1.02310
O333        O  0.29077584  0.65116192  0.19435438    -0.85630
O334        O  0.33206708  0.71087240  0.21182708    -0.82510
C335        C  0.35308498  0.71712244  0.18556067     0.97850
O336        O  0.36865419  0.70579201  0.19033363    -0.82720
O337        O  0.38427900  0.66566742  0.21217988    -0.85330
C338        C  0.36820681  0.64289033  0.18761376     1.02320
O339        O  0.34080294  0.62632297  0.19492120    -0.78140
O340        O  0.28445386  0.60933116  0.21922758    -0.78290
C341        C  0.27860392  0.62288922  0.19147818     1.02290
Cr342      Cr  0.30804813  0.67422686  0.24875140     1.93740
Cr343      Cr  0.37292474  0.69163692  0.24668874     1.93210
Cr344      Cr  0.32280866  0.62512625  0.25164988     1.39100
O345        O  0.33464704  0.66373370  0.24919033    -1.23380
C346        C  0.15859756  0.55254876  0.00048855     0.02850
C347        C  0.17282856  0.55616147  0.04023996    -0.13300
C348        C  0.20336827  0.56803458  0.04153690     0.00350
C349        C  0.21954733  0.57475367  0.00272780    -0.11830
C350        C  0.20599348  0.57217714  0.46262872     0.02840
C351        C  0.17544969  0.56126413  0.46187697    -0.11250
H352        H  0.16049400  0.55142154  0.07048788     0.08430
H353        H  0.24327160  0.58434661  0.00418575     0.05960
H354        H  0.16510433  0.56099284  0.43172330     0.05810
C355        C  0.23652781  0.58363672  0.34653839    -0.09440
C356        C  0.26267773  0.61208514  0.35095953     0.06760
C357        C  0.27019798  0.62694684  0.39173946    -0.03210
C358        C  0.25111835  0.61383723  0.42708090    -0.07660
C359        C  0.22489046  0.58516152  0.42323938     0.05870
C360        C  0.21785266  0.56986401  0.38236950    -0.02680
Br361      Br  0.18479080  0.52930920  0.37404683    -0.02380
H362        H  0.23108141  0.57171895  0.31537304     0.09780
H363        H  0.25701937  0.62613866  0.45793754     0.07800
Br364      Br  0.30674367  0.66473327  0.40115568    -0.02800
C365        C  0.23193912  0.56485793  0.10244557    -0.09440
C366        C  0.21956197  0.57961013  0.08293363     0.06760
C367        C  0.22528276  0.60732726  0.10066296    -0.03210
C368        C  0.24365523  0.62023431  0.13676218    -0.07660
C369        C  0.25690583  0.60613482  0.15601675     0.05870
C370        C  0.25038755  0.57773633  0.13892230    -0.02680
Br371      Br  0.26743211  0.55631957  0.16132374    -0.02380
H372        H  0.22788499  0.54369297  0.08853526     0.09780
H373        H  0.24811860  0.64188475  0.14918780     0.07800
Br374      Br  0.21025643  0.62961657  0.07469284    -0.02800
C375        C  0.42180705  0.63843897  0.10768117    -0.09440
C376        C  0.40241212  0.62114339  0.07369796     0.06760
C377        C  0.37193047  0.60980205  0.07861741    -0.03210
C378        C  0.36153825  0.61699522  0.11607352    -0.07660
C379        C  0.38093276  0.63529158  0.14965039     0.05870
C380        C  0.41140196  0.64554219  0.14553548    -0.02680
Br381      Br  0.43984867  0.66821212  0.19052376    -0.02380
H382        H  0.44525074  0.64685726  0.10443602     0.09780
H383        H  0.33802594  0.60839129  0.11858798     0.07800
Br384      Br  0.34328872  0.58345813  0.03586577    -0.02800
C385        C  0.41588223  0.65999322  0.41433467    -0.09440
C386        C  0.41491839  0.63243349  0.41296101     0.06760
C387        C  0.40426935  0.61433471  0.37451102    -0.03210
C388        C  0.39321954  0.62282909  0.34070038    -0.07660
C389        C  0.39180591  0.64891016  0.34378744     0.05870
C390        C  0.40409324  0.66810925  0.38086635    -0.02680
Br391      Br  0.40321116  0.70420819  0.39047937    -0.02380
H392        H  0.42460348  0.67479096  0.44278722     0.09780
H393        H  0.38455743  0.60809288  0.31216841     0.07800
Br394      Br  0.40095562  0.57626030  0.36576575    -0.02800
C395        C  0.37556124  0.73595744  0.11298887    -0.09440
C396        C  0.35988619  0.73785974  0.14901025     0.06760
C397        C  0.35179728  0.75973038  0.14910540    -0.03210
C398        C  0.35846021  0.77812219  0.11303002    -0.07660
C399        C  0.37324652  0.77535424  0.07668073     0.05870
C400        C  0.38238657  0.75447612  0.07728405    -0.02680
Br401      Br  0.40547852  0.75120045  0.03111582    -0.02380
H402        H  0.38251561  0.71983728  0.11236573     0.09780
H403        H  0.35179347  0.79446884  0.11314132     0.07800
Br404      Br  0.33299738  0.76690197  0.19780636    -0.02800
C405        C  0.39021293  0.78590771  0.38892659    -0.09440
C406        C  0.36681737  0.78024078  0.41702680     0.06760
C407        C  0.33772324  0.75740543  0.40590570    -0.03210
C408        C  0.33267414  0.73944593  0.36864421    -0.07660
C409        C  0.35628159  0.74336770  0.34197387     0.05870
C410        C  0.38532247  0.76785429  0.35165326    -0.02680
Br411      Br  0.41974274  0.77780662  0.31719484    -0.02380
H412        H  0.41269562  0.80363559  0.39715002     0.09780
H413        H  0.31005604  0.72165751  0.36138691     0.07800
Br414      Br  0.30414157  0.74970520  0.44068874    -0.02800
C415        C  0.07602416  0.01169078  0.47611890    -0.09440
C416        C  0.06683392  0.52651783  0.00505940     0.06760
C417        C  0.08828206  0.55024620  0.03181877    -0.03210
C418        C  0.11800335  0.55882566  0.02873802    -0.07660
C419        C  0.12701821  0.54353599  0.00045240     0.05870
C420        C  0.10560865  0.01962146  0.47415361    -0.02680
Br421      Br  0.11468953  0.99489536  0.43819477    -0.02380
H422        H  0.05991511  0.99317696  0.45560335     0.09780
H423        H  0.13414420  0.57717206  0.04947418     0.07800
Br424      Br  0.07842695  0.56981775  0.07646658    -0.02800
C425        C  0.44532164  0.88943055  0.47584122    -0.09440
C426        C  0.42141503  0.87596974  0.00519686     0.06760
C427        C  0.41752354  0.89459163  0.03521826    -0.03210
C428        C  0.43806981  0.92583244  0.03652649    -0.07660
C429        C  0.46230377  0.93915851  0.00767591     0.05870
C430        C  0.46531592  0.92064227  0.47629731    -0.02680
Br431      Br  0.99477516  0.93663033  0.43097007    -0.02380
H432        H  0.44844485  0.87557644  0.45213990     0.09780
H433        H  0.43502217  0.93981821  0.06006673     0.07800
Br434      Br  0.38361350  0.87904839  0.07301822    -0.02800
C435        C  0.47903643  0.58758503  0.02356126    -0.09440
C436        C  0.45560352  0.57871076  0.99452472     0.06760
C437        C  0.44467380  0.55157680  0.47021891    -0.03210
C438        C  0.45847127  0.53517390  0.47281363    -0.07660
C439        C  0.48177162  0.54376898  0.00209126     0.05870
C440        C  0.99150889  0.56998158  0.02844486    -0.02680
Br441      Br  0.01854452  0.58078841  0.07561365    -0.02380
H442        H  0.98676178  0.60761901  0.04401431     0.09780
H443        H  0.44998224  0.51468783  0.45315894     0.07800
Br444      Br  0.40821563  0.53284869  0.43879293    -0.02800
C445        C  0.49345861  0.52358466  0.00648901     0.02850
C446        C  0.47340614  0.99215695  0.00877981    -0.13300
C447        C  0.48358529  0.97231811  0.50980673     0.00350
C448        C  0.01414761  0.98418940  0.51150337    -0.11830
C449        C  0.03462490  0.51539324  0.50833712     0.02840
C450        C  0.02412812  0.53496246  0.00512674    -0.11250
H451        H  0.44973803  0.98299272  0.00852098     0.08430
H452        H  0.02202576  0.96893317  0.51414682     0.05960
H453        H  0.03967524  0.55885973  0.00046878     0.05810
C454        C  0.40113025  0.84259540  0.50329430     0.02850
C455        C  0.39051042  0.82765804  0.96286487    -0.13300
C456        C  0.37384598  0.79604005  0.95981930     0.00350
C457        C  0.36729569  0.77922996  0.49757348    -0.11830
C458        C  0.37823871  0.79367599  0.53799327     0.02840
C459        C  0.39502399  0.82537873  0.54078453    -0.11250
H460        H  0.39587978  0.84060106  0.93349714     0.08430
H461        H  0.35486101  0.75475811  0.49520014     0.05960
H462        H  0.40443319  0.83654664  0.57175378     0.05810
C463        C  0.44085040  0.59622244  0.49376362     0.02850
C464        C  0.43733710  0.60740378  0.95462810    -0.13300
C465        C  0.42119041  0.62186064  0.95392580     0.00350
C466        C  0.41006139  0.62620109  0.49350751    -0.11830
C467        C  0.41438868  0.61617190  0.53274875     0.02840
C468        C  0.42982426  0.60127536  0.53273583    -0.11250
H469        H  0.44726036  0.60486970  0.92509652     0.08430
H470        H  0.39749625  0.63711748  0.49398226     0.05960
H471        H  0.43254185  0.59286205  0.56298965     0.05810
O472        O  0.27812226  0.64002926  0.78612786    -0.85630
O473        O  0.32351742  0.69815692  0.80287913    -0.82680
C474        C  0.34960543  0.72062785  0.80654446     0.97830
O475        O  0.36956538  0.72349850  0.78030729    -0.82710
O476        O  0.38065259  0.67993664  0.80303990    -0.85360
C477        C  0.37613484  0.65406488  0.80884018     1.02360
O478        O  0.35851937  0.63216895  0.78401714    -0.78120
O479        O  0.30386867  0.62122185  0.80876220    -0.78310
C480        C  0.28264030  0.62524241  0.81354053     1.02310
O481        O  0.29077435  0.65118872  0.69439516    -0.85630
O482        O  0.33208052  0.71088649  0.71187681    -0.82510
C483        C  0.35309558  0.71713085  0.68560592     0.97850
O484        O  0.36866140  0.70579632  0.69037932    -0.82720
O485        O  0.38426886  0.66565671  0.71221307    -0.85330
C486        C  0.36819373  0.64289572  0.68762380     1.02320
O487        O  0.34078881  0.62633346  0.69492107    -0.78140
O488        O  0.28444104  0.60934289  0.71922485    -0.78290
C489        C  0.27859156  0.62291619  0.69150040     1.02290
Cr490      Cr  0.30805223  0.67423699  0.74879653     1.93740
Cr491      Cr  0.37292180  0.69162708  0.74672962     1.93210
Cr492      Cr  0.32279325  0.62511952  0.75165133     1.39100
O493        O  0.33464145  0.66373117  0.74922123    -1.23380
C494        C  0.15858758  0.55270939  0.50048639     0.02850
C495        C  0.17281225  0.55631839  0.54024199    -0.13300
C496        C  0.20334845  0.56817649  0.54154674     0.00350
C497        C  0.21953121  0.57488814  0.50274208    -0.11830
C498        C  0.20600130  0.57203624  0.96262038     0.02840
C499        C  0.17545478  0.56110666  0.96187564    -0.11250
H500        H  0.16047359  0.55157555  0.57048647     0.08430
H501        H  0.24325164  0.58446010  0.50420750     0.05960
H502        H  0.16510545  0.56083532  0.93172579     0.05810
C503        C  0.23653975  0.58356663  0.84653160    -0.09440
C504        C  0.26265722  0.61204232  0.85095934     0.06760
C505        C  0.27015500  0.62689766  0.89174422    -0.03210
C506        C  0.25108594  0.61375230  0.92708538    -0.07660
C507        C  0.22489124  0.58505131  0.92323567     0.05870
C508        C  0.21787344  0.56976308  0.88236053    -0.02680
Br509      Br  0.18485098  0.52918613  0.87403226    -0.02380
H510        H  0.23111321  0.57165369  0.81536327     0.09780
H511        H  0.25696891  0.62604552  0.95794854     0.07800
Br512      Br  0.30666150  0.66472019  0.90117150    -0.02800
C513        C  0.23190804  0.56494566  0.60242027    -0.09440
C514        C  0.21953604  0.57971786  0.58295302     0.06760
C515        C  0.22525890  0.60742285  0.60073639    -0.03210
C516        C  0.24363253  0.62030056  0.63683983    -0.07660
C517        C  0.25688220  0.60618342  0.65604473     0.05870
C518        C  0.25035702  0.57779436  0.63890141    -0.02680
Br519      Br  0.26739477  0.55635465  0.66124003    -0.02380
H520        H  0.22785054  0.54378907  0.58847006     0.09780
H521        H  0.24810009  0.64194412  0.64930570     0.07800
Br522      Br  0.21023938  0.62973915  0.57483315    -0.02800
C523        C  0.42178559  0.63846319  0.60766110    -0.09440
C524        C  0.40238800  0.62117922  0.57367491     0.06760
C525        C  0.37190845  0.60984449  0.57859485    -0.03210
C526        C  0.36151970  0.61702914  0.61606149    -0.07660
C527        C  0.38091648  0.63530987  0.64964631     0.05870
C528        C  0.41138446  0.64555815  0.64552532    -0.02680
Br529      Br  0.43983487  0.66821221  0.69051633    -0.02380
H530        H  0.44522791  0.64687560  0.60441269     0.09780
H531        H  0.33800836  0.60842928  0.61857948     0.07800
Br532      Br  0.34326540  0.58351786  0.53583288    -0.02800
C533        C  0.41586324  0.65994721  0.91435389    -0.09440
C534        C  0.41489654  0.63238623  0.91297862     0.06760
C535        C  0.40423002  0.61428082  0.87453695    -0.03210
C536        C  0.39317433  0.62277460  0.84073119    -0.07660
C537        C  0.39177341  0.64886364  0.84381442     0.05870
C538        C  0.40407060  0.66806414  0.88089105    -0.02680
Br539      Br  0.40320164  0.70417014  0.89050857    -0.02380
H540        H  0.42459335  0.67474757  0.94280265     0.09780
H541        H  0.38450138  0.60803422  0.81220494     0.07800
Br542      Br  0.40090396  0.57620009  0.86580282    -0.02800
C543        C  0.37557511  0.73596002  0.61303071    -0.09440
C544        C  0.35989678  0.73786422  0.64904694     0.06760
C545        C  0.35180248  0.75973058  0.64912567    -0.03210
C546        C  0.35846351  0.77811555  0.61304128    -0.07660
C547        C  0.37325296  0.77534520  0.57669733     0.05870
C548        C  0.38239812  0.75447162  0.57731679    -0.02680
Br549      Br  0.40549506  0.75119389  0.53115873    -0.02380
H550        H  0.38253384  0.71984346  0.61241828     0.09780
H551        H  0.35179290  0.79445895  0.61314158     0.07800
Br552      Br  0.33299631  0.76690476  0.69781522    -0.02800
C553        C  0.39021176  0.78592580  0.88893684    -0.09440
C554        C  0.36681237  0.78026413  0.91702491     0.06760
C555        C  0.33771958  0.75742724  0.90590305    -0.03210
C556        C  0.33267525  0.73945924  0.86865459    -0.07660
C557        C  0.35628645  0.74337381  0.84200045     0.05870
C558        C  0.38532598  0.76786327  0.85167661    -0.02680
Br559      Br  0.41974973  0.77780617  0.81723354    -0.02380
H560        H  0.41269358  0.80365469  0.89716270     0.09780
H561        H  0.31005779  0.72166990  0.86139578     0.07800
Br562      Br  0.30413422  0.74973293  0.94067200    -0.02800
C563        C  0.07602840  0.01169901  0.97611905    -0.09440
C564        C  0.06679793  0.52658441  0.50509408     0.06760
C565        C  0.08823922  0.55033344  0.53183546    -0.03210
C566        C  0.11797018  0.55894986  0.52873203    -0.07660
C567        C  0.12700260  0.54367721  0.50044342     0.05870
C568        C  0.10561241  0.01962867  0.97415480    -0.02680
Br569      Br  0.11469225  0.99490011  0.93819999    -0.02380
H570        H  0.05991901  0.99318452  0.95560473     0.09780
H571        H  0.13410480  0.57730812  0.54945898     0.07800
Br572      Br  0.07836654  0.56988419  0.57649313    -0.02800
C573        C  0.44532451  0.88944068  0.97584947    -0.09440
C574        C  0.42141364  0.87595616  0.50519123     0.06760
C575        C  0.41751989  0.89457719  0.53521223    -0.03210
C576        C  0.43806297  0.92581934  0.53651889    -0.07660
C577        C  0.46229651  0.93914830  0.50766766     0.05870
C578        C  0.46532197  0.92065127  0.97630659    -0.02680
Br579      Br  0.99478262  0.93663588  0.93098107    -0.02380
H580        H  0.44844556  0.87558481  0.95214855     0.09780
H581        H  0.43501373  0.93980368  0.56005975     0.07800
Br582      Br  0.38361097  0.87903112  0.57301485    -0.02800
C583        C  0.47896013  0.58756611  0.52361942    -0.09440
C584        C  0.45554721  0.57870692  0.49455178     0.06760
C585        C  0.44473079  0.55157950  0.97019487    -0.03210
C586        C  0.45853905  0.53518581  0.97277066    -0.07660
C587        C  0.48169078  0.54374922  0.50215487     0.05870
C588        C  0.99141700  0.56995196  0.52852423    -0.02680
Br589      Br  0.01840863  0.58072466  0.57574399    -0.02380
H590        H  0.98667998  0.60759565  0.54408067     0.09780
H591        H  0.45004475  0.51469664  0.95312173     0.07800
Br592      Br  0.40825907  0.53283420  0.93880149    -0.02800
C593        C  0.99342173  0.02356707  0.50653833     0.02850
C594        C  0.97337139  0.49216070  0.50877802    -0.13300
C595        C  0.98358832  0.47232292  0.00976846     0.00350
C596        C  0.51414567  0.48417378  0.01146643    -0.11830
C597        C  0.53465893  0.01538746  0.00833379     0.02840
C598        C  0.52409394  0.03496473  0.50517482    -0.11250
H599        H  0.94970316  0.48299577  0.50851732     0.08430
H600        H  0.52200778  0.46890418  0.01411371     0.05960
H601        H  0.53962789  0.05886507  0.50051912     0.05810
C602        C  0.90111495  0.34260865  0.00328440     0.02850
C603        C  0.89051220  0.32765055  0.46286490    -0.13300
C604        C  0.87386258  0.29603227  0.45982564     0.00350
C605        C  0.86729651  0.27924337  0.99757616    -0.11830
C606        C  0.87824182  0.29369443  0.03799168     0.02840
C607        C  0.89501910  0.32539729  0.04077756    -0.11250
H608        H  0.89587362  0.34058933  0.43349420     0.08430
H609        H  0.85486890  0.25477147  0.99520662     0.05960
H610        H  0.90443185  0.33656939  0.07174326     0.05810
C611        C  0.94086916  0.09620374  0.99375467     0.02850
C612        C  0.93734187  0.10740761  0.45461974    -0.13300
C613        C  0.92121057  0.12188025  0.45390478     0.00350
C614        C  0.91007926  0.12618194  0.99350077    -0.11830
C615        C  0.91441315  0.11615928  0.03274311     0.02840
C616        C  0.92985032  0.10126409  0.03272953    -0.11250
H617        H  0.94726755  0.10486763  0.42509528     0.08430
H618        H  0.89751509  0.13709947  0.99397574     0.05960
H619        H  0.93257432  0.09285718  0.06298491     0.05810
O620        O  0.77815197  0.14004058  0.28609666    -0.85630
O621        O  0.82354379  0.19816707  0.30285647    -0.82680
C622        C  0.84963181  0.22063741  0.30652789     0.97830
O623        O  0.86959293  0.22351353  0.28028779    -0.82710
O624        O  0.88069048  0.17995992  0.30301103    -0.85360
C625        C  0.87617432  0.15408942  0.30881387     1.02360
O626        O  0.85855518  0.13219058  0.28399891    -0.78120
O627        O  0.80390669  0.12124910  0.30875300    -0.78310
C628        C  0.78267660  0.12526786  0.31352481     1.02310
O629        O  0.79080921  0.15120071  0.19436891    -0.85630
O630        O  0.83210824  0.21090144  0.21185977    -0.82510
C631        C  0.85312291  0.21714853  0.18558798     0.97850
O632        O  0.86868880  0.20581368  0.19035510    -0.82720
O633        O  0.88430075  0.16567664  0.21218314    -0.85330
C634        C  0.86822534  0.14290866  0.18760473     1.02320
O635        O  0.84082112  0.12634435  0.19490851    -0.78140
O636        O  0.78447422  0.10935751  0.21921369    -0.78290
C637        C  0.77862645  0.12292772  0.19148138     1.02290
Cr638      Cr  0.80808209  0.17424967  0.24877165     1.93740
Cr639      Cr  0.87295328  0.19164600  0.24670353     1.93210
Cr640      Cr  0.82282737  0.12513735  0.25163845     1.39100
O641        O  0.83467401  0.16374777  0.24919863    -1.23380
C642        C  0.65861814  0.05269434  0.00048014     0.02850
C643        C  0.67284385  0.05630500  0.04023510    -0.13300
C644        C  0.70338012  0.06816352  0.04153793     0.00350
C645        C  0.71956157  0.07487320  0.00273242    -0.11830
C646        C  0.70601982  0.07215694  0.46261894     0.02840
C647        C  0.67547574  0.06124219  0.46186895    -0.11250
H648        H  0.66050630  0.05156463  0.07048030     0.08430
H649        H  0.74328227  0.08444643  0.00419650     0.05960
H650        H  0.66512941  0.06097089  0.43171626     0.05810
C651        C  0.73655341  0.08363406  0.34652792    -0.09440
C652        C  0.76269915  0.11208567  0.35095316     0.06760
C653        C  0.77021820  0.12694241  0.39173649    -0.03210
C654        C  0.75114023  0.11382567  0.42707711    -0.07660
C655        C  0.72491600  0.08514742  0.42323115     0.05870
C656        C  0.71788015  0.06985425  0.38235823    -0.02680
Br657      Br  0.68482386  0.02929672  0.37403081    -0.02380
H658        H  0.73110917  0.07171956  0.31536006     0.09780
H659        H  0.75703982  0.12612351  0.45793665     0.07800
Br660      Br  0.80676161  0.16473010  0.40115937    -0.02800
C661        C  0.73194226  0.06494333  0.10241672    -0.09440
C662        C  0.71956948  0.07971195  0.08294124     0.06760
C663        C  0.72529352  0.10742025  0.10071244    -0.03210
C664        C  0.74366831  0.12030423  0.13681325    -0.07660
C665        C  0.75691806  0.10619025  0.15602702     0.05870
C666        C  0.75039267  0.07779850  0.13889508    -0.02680
Br667      Br  0.76743180  0.05636319  0.16124543    -0.02380
H668        H  0.72788422  0.04378445  0.08847512     0.09780
H669        H  0.74813632  0.14194980  0.14927033     0.07800
Br670      Br  0.71027372  0.12973220  0.07479595    -0.02800
C671        C  0.92181533  0.13846517  0.10764804    -0.09440
C672        C  0.90241535  0.12117082  0.07366961     0.06760
C673        C  0.87193539  0.10983270  0.07859413    -0.03210
C674        C  0.86154829  0.11702455  0.11605591    -0.07660
C675        C  0.88094714  0.13531621  0.14963201     0.05870
C676        C  0.91141584  0.14556748  0.14550777    -0.02680
Br677      Br  0.93986965  0.16823610  0.19048872    -0.02380
H678        H  0.94525811  0.14688057  0.10439638     0.09780
H679        H  0.83803647  0.10842184  0.11857655     0.07800
Br680      Br  0.84328990  0.08349300  0.03584377    -0.02800
C681        C  0.91590927  0.15997743  0.41431956    -0.09440
C682        C  0.91493134  0.13241075  0.41295144     0.06760
C683        C  0.90426389  0.11430392  0.37451141    -0.03210
C684        C  0.89321308  0.12279996  0.34070307    -0.07660
C685        C  0.89181718  0.14889178  0.34378332     0.05870
C686        C  0.90412035  0.16809622  0.38085457    -0.02680
Br687      Br  0.90326347  0.20420960  0.39046337    -0.02380
H688        H  0.92464269  0.17477969  0.44276600     0.09780
H689        H  0.88453748  0.10805788  0.31217882     0.07800
Br690      Br  0.90092758  0.07621796  0.36578242    -0.02800
C691        C  0.87560186  0.23598680  0.11301718    -0.09440
C692        C  0.85992263  0.23788537  0.14903616     0.06760
C693        C  0.85182410  0.25974859  0.14912382    -0.03210
C694        C  0.85847974  0.27813451  0.11304292    -0.07660
C695        C  0.87326831  0.27536836  0.07669500     0.05870
C696        C  0.88242002  0.25449983  0.07730703    -0.02680
Br697      Br  0.90551746  0.25122947  0.03114257    -0.02380
H698        H  0.88256411  0.21987301  0.11239898     0.09780
H699        H  0.85180443  0.29447430  0.11314824     0.07800
Br700      Br  0.83301800  0.26691656  0.19781981    -0.02800
C701        C  0.89023235  0.28592248  0.38894267    -0.09440
C702        C  0.86683187  0.28025372  0.41703332     0.06760
C703        C  0.83774064  0.25741321  0.40591129    -0.03210
C704        C  0.83269864  0.23945152  0.36865629    -0.07660
C705        C  0.85631081  0.24337559  0.34199538     0.05870
C706        C  0.88534906  0.26786574  0.35167630    -0.02680
Br707      Br  0.91977411  0.27781763  0.31723045    -0.02380
H708        H  0.91271299  0.30365384  0.39716951     0.09780
H709        H  0.81008218  0.22165973  0.36139716     0.07800
Br710      Br  0.80415395  0.24970660  0.44068696    -0.02800
C711        C  0.57599757  0.51171134  0.47611988    -0.09440
C712        C  0.56683143  0.02657688  0.00508865     0.06760
C713        C  0.58827469  0.05032853  0.03182462    -0.03210
C714        C  0.61800475  0.05894201  0.02872152    -0.07660
C715        C  0.62703417  0.04366431  0.00043818     0.05870
C716        C  0.60558236  0.51964337  0.47415564    -0.02680
Br717      Br  0.61466450  0.49491915  0.43819497    -0.02380
H718        H  0.55988961  0.49319859  0.45560175     0.09780
H719        H  0.63414106  0.07730212  0.04944436     0.07800
Br720      Br  0.57840617  0.06988768  0.07647449    -0.02800
C721        C  0.94530551  0.38944830  0.47583451    -0.09440
C722        C  0.92139785  0.37596849  0.00516929     0.06760
C723        C  0.91751193  0.39459459  0.03519049    -0.03210
C724        C  0.93805836  0.42583590  0.03648798    -0.07660
C725        C  0.96228676  0.43915713  0.00762764     0.05870
C726        C  0.96529457  0.42066036  0.47628972    -0.02680
Br727      Br  0.49475129  0.43665358  0.43095936    -0.02380
H728        H  0.94843163  0.37559648  0.45213262     0.09780
H729        H  0.93501767  0.43982499  0.06003097     0.07800
Br730      Br  0.88361146  0.37905570  0.07300880    -0.02800
C731        C  0.97898707  0.08755705  0.02360680    -0.09440
C732        C  0.95557066  0.07869226  0.99454305     0.06760
C733        C  0.94470205  0.05156347  0.47021351    -0.03210
C734        C  0.95850012  0.03516105  0.47281009    -0.07660
C735        C  0.98172491  0.04374392  0.00214441     0.05870
C736        C  0.49144950  0.06994773  0.02851052    -0.02680
Br737      Br  0.51844740  0.08072871  0.07572402    -0.02380
H738        H  0.48670578  0.10758744  0.04406557     0.09780
H739        H  0.95000926  0.01467289  0.45315981     0.07800
Br740      Br  0.90824224  0.03283153  0.43879181    -0.02800
C741        C  0.99342624  0.02357427  0.00653624     0.02850
C742        C  0.97342253  0.49216922  0.00873779    -0.13300
C743        C  0.98355835  0.47233181  0.50980497     0.00350
C744        C  0.51412072  0.48420444  0.51150327    -0.11830
C745        C  0.53465345  0.01537795  0.50833415     0.02840
C746        C  0.52409855  0.03497328  0.00517185    -0.11250
H747        H  0.94975694  0.48301857  0.00848229     0.08430
H748        H  0.52200012  0.46894912  0.51414491     0.05960
H749        H  0.53963159  0.05887358  0.00051424     0.05810
C750        C  0.90112383  0.34261014  0.50329332     0.02850
C751        C  0.89049851  0.32764633  0.96285890    -0.13300
C752        C  0.87384828  0.29602812  0.95982360     0.00350
C753        C  0.86730961  0.27924520  0.49757605    -0.11830
C754        C  0.87825119  0.29369396  0.53799369     0.02840
C755        C  0.89502633  0.32539647  0.54078407    -0.11250
H756        H  0.89585898  0.34058300  0.93348619     0.08430
H757        H  0.85488262  0.25477339  0.49520362     0.05960
H758        H  0.90443495  0.33656687  0.57175227     0.05810
C759        C  0.94087781  0.09621068  0.49375266     0.02850
C760        C  0.93733331  0.10740046  0.95462183    -0.13300
C761        C  0.92120167  0.12187247  0.95390679     0.00350
C762        C  0.91008892  0.12619020  0.49349935    -0.11830
C763        C  0.91442297  0.11616761  0.53274173     0.02840
C764        C  0.92985988  0.10127206  0.53272782    -0.11250
H765        H  0.94725958  0.10486118  0.92509745     0.08430
H766        H  0.89752451  0.13710746  0.49397478     0.05960
H767        H  0.93258358  0.09286481  0.56298307     0.05810
O768        O  0.77815060  0.14003556  0.78609186    -0.85630
O769        O  0.82353983  0.19816214  0.80285375    -0.82680
C770        C  0.84962738  0.22063277  0.80652786     0.97830
O771        O  0.86959008  0.22350977  0.78029029    -0.82710
O772        O  0.88068742  0.17995616  0.80301376    -0.85360
C773        C  0.87617232  0.15408593  0.80881439     1.02360
O774        O  0.85855512  0.13218801  0.78399672    -0.78120
O775        O  0.80390594  0.12124493  0.80874918    -0.78310
C776        C  0.78267600  0.12526397  0.81352104     1.02310
O777        O  0.79080972  0.15119675  0.69436427    -0.85630
O778        O  0.83210731  0.21089739  0.71185747    -0.82510
C779        C  0.85312341  0.21714555  0.68558810     0.97850
O780        O  0.86869017  0.20581201  0.69035766    -0.82720
O781        O  0.88430217  0.16567557  0.71218562    -0.85330
C782        C  0.86822808  0.14290870  0.68760450     1.02320
O783        O  0.84082352  0.12634358  0.69490585    -0.78140
O784        O  0.78447498  0.10935381  0.71920929    -0.78290
C785        C  0.77862715  0.12292381  0.69147676     1.02290
Cr786      Cr  0.80808071  0.17424528  0.74876807     1.93740
Cr787      Cr  0.87295257  0.19164345  0.74670591     1.93210
Cr788      Cr  0.82282778  0.12513437  0.75163524     1.39100
O789        O  0.83467342  0.16374453  0.74919709    -1.23380
C790        C  0.65861490  0.05268752  0.50047937     0.02850
C791        C  0.67284111  0.05629808  0.54023406    -0.13300
C792        C  0.70337760  0.06815719  0.54153642     0.00350
C793        C  0.71955889  0.07486788  0.50273075    -0.11830
C794        C  0.70602258  0.07216143  0.96262013     0.02840
C795        C  0.67547885  0.06124779  0.96186986    -0.11250
H796        H  0.66050373  0.05155706  0.57047948     0.08430
H797        H  0.74327973  0.08444176  0.50419450     0.05960
H798        H  0.66513263  0.06097622  0.93171689     0.05810
C799        C  0.73655285  0.08363300  0.84652775    -0.09440
C800        C  0.76269976  0.11208372  0.85095090     0.06760
C801        C  0.77022084  0.12694161  0.89173341    -0.03210
C802        C  0.75114364  0.11382695  0.92707529    -0.07660
C803        C  0.72491827  0.08514954  0.92323146     0.05870
C804        C  0.71788043  0.06985511  0.88235938    -0.02680
Br805      Br  0.68482248  0.02929823  0.87403448    -0.02380
H806        H  0.73110701  0.07171764  0.81536051     0.09780
H807        H  0.75704468  0.12612579  0.95793404     0.07800
Br808      Br  0.80676589  0.16472807  0.90115367    -0.02800
C809        C  0.73194163  0.06493820  0.60241387    -0.09440
C810        C  0.71956760  0.07970599  0.58293937     0.06760
C811        C  0.72529210  0.10741460  0.60070998    -0.03210
C812        C  0.74366798  0.12029940  0.63680960    -0.07660
C813        C  0.75691856  0.10618603  0.65602267     0.05870
C814        C  0.75039325  0.07779427  0.63889094    -0.02680
Br815      Br  0.76743432  0.05636035  0.66123967    -0.02380
H816        H  0.72788370  0.04377935  0.58847235     0.09780
H817        H  0.74813608  0.14194507  0.64926635     0.07800
Br818      Br  0.71027156  0.12972599  0.57479390    -0.02800
C819        C  0.92182231  0.13847143  0.60764833    -0.09440
C820        C  0.90242368  0.12117769  0.57366822     0.06760
C821        C  0.87194330  0.10983816  0.57859142    -0.03210
C822        C  0.86155446  0.11702776  0.61605352    -0.07660
C823        C  0.88095186  0.13531861  0.64963145     0.05870
C824        C  0.91142106  0.14557156  0.64550838    -0.02680
Br825      Br  0.93987331  0.16823964  0.69049134    -0.02380
H826        H  0.94526539  0.14688795  0.60439786     0.09780
H827        H  0.83804236  0.10842385  0.61857299     0.07800
Br828      Br  0.84329940  0.08349930  0.53583877    -0.02800
C829        C  0.91590458  0.15997167  0.91432122    -0.09440
C830        C  0.91492406  0.13240377  0.91295364     0.06760
C831        C  0.90425608  0.11429676  0.87451407    -0.03210
C832        C  0.89320752  0.12279422  0.84070482    -0.07660
C833        C  0.89181393  0.14888739  0.84378429     0.05870
C834        C  0.90411764  0.16809186  0.88085542    -0.02680
Br835      Br  0.90326455  0.20420743  0.89046297    -0.02380
H836        H  0.92463838  0.17477372  0.94276783     0.09780
H837        H  0.88453141  0.10805198  0.81218080     0.07800
Br838      Br  0.90091518  0.07620849  0.86578771    -0.02800
C839        C  0.87560774  0.23598611  0.61302116    -0.09440
C840        C  0.85992411  0.23788220  0.64903613     0.06760
C841        C  0.85182254  0.25974297  0.64911990    -0.03210
C842        C  0.85848038  0.27812949  0.61303936    -0.07660
C843        C  0.87327402  0.27536622  0.57669583     0.05870
C844        C  0.88242795  0.25449970  0.57731137    -0.02680
Br845      Br  0.90553119  0.25123316  0.53115265    -0.02380
H846        H  0.88257206  0.21987400  0.61240591     0.09780
H847        H  0.85180312  0.29446768  0.61314157     0.07800
Br848      Br  0.83300911  0.26690688  0.69780989    -0.02800
C849        C  0.89022182  0.28591772  0.88894456    -0.09440
C850        C  0.86681974  0.28024794  0.91703255     0.06760
C851        C  0.83772949  0.25740624  0.90590852    -0.03210
C852        C  0.83268999  0.23944477  0.86865395    -0.07660
C853        C  0.85630381  0.24337024  0.84199554     0.05870
C854        C  0.88534110  0.26786126  0.85167877    -0.02680
Br855      Br  0.91976813  0.27781515  0.81723659    -0.02380
H856        H  0.91270181  0.30365003  0.89717289     0.09780
H857        H  0.81007415  0.22165217  0.86139305     0.07800
Br858      Br  0.80414091  0.24969830  0.94068037    -0.02800
C859        C  0.57601610  0.51162481  0.97609216    -0.09440
C860        C  0.56682641  0.02656717  0.50509023     0.06760
C861        C  0.58826967  0.05031811  0.53182747    -0.03210
C862        C  0.61800005  0.05893241  0.52872366    -0.07660
C863        C  0.62703029  0.04365644  0.50043819     0.05870
C864        C  0.60559056  0.51952056  0.97414829    -0.02680
Br865      Br  0.61464934  0.49477829  0.93818511    -0.02380
H866        H  0.55990153  0.49312492  0.95556321     0.09780
H867        H  0.63413606  0.07729198  0.54944753     0.07800
Br868      Br  0.57840108  0.06987537  0.57648012    -0.02800
C869        C  0.94529909  0.38943627  0.97580749    -0.09440
C870        C  0.92139942  0.37597069  0.50518702     0.06760
C871        C  0.91750101  0.39458797  0.53520859    -0.03210
C872        C  0.93803959  0.42583069  0.53651517    -0.07660
C873        C  0.96227216  0.43916275  0.50766266     0.05870
C874        C  0.96529578  0.42064645  0.97625406    -0.02680
Br875      Br  0.49474623  0.43662618  0.93091404    -0.02380
H876        H  0.94841620  0.37557806  0.95210590     0.09780
H877        H  0.93498817  0.43981282  0.56005742     0.07800
Br878      Br  0.88359226  0.37903504  0.57301283    -0.02800
C879        C  0.97899362  0.08755935  0.52360261    -0.09440
C880        C  0.95557648  0.07869601  0.49454092     0.06760
C881        C  0.94470081  0.05156208  0.97021147    -0.03210
C882        C  0.95850335  0.03516410  0.97280525    -0.07660
C883        C  0.98172249  0.04373933  0.50214725     0.05870
C884        C  0.49145226  0.06994652  0.52850848    -0.02680
Br885      Br  0.51845284  0.08072919  0.57571870    -0.02380
H886        H  0.48671596  0.10759169  0.54405836     0.09780
H887        H  0.95001605  0.01467744  0.95315245     0.07800
Br888      Br  0.90824110  0.03282621  0.93878892    -0.02800
C889        C  0.99339123  0.52357859  0.50654195     0.02850
C890        C  0.97340052  0.99214916  0.50877840    -0.13300
C891        C  0.98359203  0.97232737  0.00981157     0.00350
C892        C  0.51415421  0.98419920  0.01150753    -0.11830
C893        C  0.53466709  0.51535733  0.00829231     0.02840
C894        C  0.52406377  0.53497855  0.50518017    -0.11250
H895        H  0.94973258  0.98298566  0.50851932     0.08430
H896        H  0.52203299  0.96894365  0.01415357     0.05960
H897        H  0.53959663  0.55887957  0.50052824     0.05810
C898        C  0.90112681  0.84261126  0.00329605     0.02850
C899        C  0.89051641  0.82763776  0.46286447    -0.13300
C900        C  0.87385556  0.79601896  0.45982259     0.00350
C901        C  0.86728382  0.77924766  0.99756588    -0.11830
C902        C  0.87823096  0.79368966  0.03798532     0.02840
C903        C  0.89502002  0.82539172  0.04078263    -0.11250
H904        H  0.89588326  0.84057838  0.43349477     0.08430
H905        H  0.85484651  0.75477583  0.99518851     0.05960
H906        H  0.90443201  0.83655654  0.07175248     0.05810
C907        C  0.94089135  0.59621442  0.99375598     0.02850
C908        C  0.93732505  0.60742898  0.45463335    -0.13300
C909        C  0.92119205  0.62189953  0.45391550     0.00350
C910        C  0.91006934  0.62616118  0.99352747    -0.11830
C911        C  0.91441687  0.61614385  0.03276566     0.02840
C912        C  0.92987293  0.60126656  0.03273954    -0.11250
H913        H  0.94726027  0.60489757  0.42511356     0.08430
H914        H  0.89749444  0.63706728  0.99401143     0.05960
H915        H  0.93260955  0.59286441  0.06299028     0.05810
O916        O  0.77812375  0.64002282  0.28608784    -0.85630
O917        O  0.82350864  0.69815912  0.30282981    -0.82680
C918        C  0.84959755  0.72062938  0.30650158     0.97830
O919        O  0.86955800  0.72350478  0.28026044    -0.82710
O920        O  0.88066942  0.67996601  0.30300376    -0.85360
C921        C  0.87615824  0.65409875  0.30881723     1.02360
O922        O  0.85853995  0.63219401  0.28401110    -0.78120
O923        O  0.80388865  0.62124805  0.30876448    -0.78310
C924        C  0.78265435  0.62526136  0.31352810     1.02310
O925        O  0.79077583  0.65116190  0.19435439    -0.85630
O926        O  0.83206706  0.71087238  0.21182707    -0.82510
C927        C  0.85308496  0.71712242  0.18556066     0.97850
O928        O  0.86865416  0.70579199  0.19033361    -0.82720
O929        O  0.88427901  0.66566743  0.21217990    -0.85330
C930        C  0.86820682  0.64289033  0.18761379     1.02320
O931        O  0.84080295  0.62632297  0.19492124    -0.78140
O932        O  0.78445387  0.60933114  0.21922760    -0.78290
C933        C  0.77860392  0.62288920  0.19147820     1.02290
Cr934      Cr  0.80804812  0.67422685  0.24875141     1.93740
Cr935      Cr  0.87292473  0.69163692  0.24668874     1.93210
Cr936      Cr  0.82280867  0.62512625  0.25164992     1.39100
O937        O  0.83464704  0.66373369  0.24919034    -1.23380
C938        C  0.65859757  0.55254877  0.00048855     0.02850
C939        C  0.67282857  0.55616147  0.04023996    -0.13300
C940        C  0.70336827  0.56803457  0.04153690     0.00350
C941        C  0.71954734  0.57475367  0.00272780    -0.11830
C942        C  0.70599348  0.57217711  0.46262874     0.02840
C943        C  0.67544969  0.56126410  0.46187700    -0.11250
H944        H  0.66049401  0.55142154  0.07048787     0.08430
H945        H  0.74327161  0.58434660  0.00418575     0.05960
H946        H  0.66510433  0.56099281  0.43172333     0.05810
C947        C  0.73652781  0.58363669  0.34653842    -0.09440
C948        C  0.76267772  0.61208513  0.35095954     0.06760
C949        C  0.77019795  0.62694684  0.39173947    -0.03210
C950        C  0.75111832  0.61383722  0.42708091    -0.07660
C951        C  0.72489046  0.58516149  0.42323940     0.05870
C952        C  0.71785267  0.56986398  0.38236952    -0.02680
Br953      Br  0.68479083  0.52930915  0.37404687    -0.02380
H954        H  0.73108143  0.57171891  0.31537307     0.09780
H955        H  0.75701934  0.62613866  0.45793754     0.07800
Br956      Br  0.80674362  0.66473328  0.40115568    -0.02800
C957        C  0.73193911  0.56485790  0.10244559    -0.09440
C958        C  0.71956197  0.57961011  0.08293364     0.06760
C959        C  0.72528278  0.60732725  0.10066296    -0.03210
C960        C  0.74365524  0.62023430  0.13676218    -0.07660
C961        C  0.75690583  0.60613480  0.15601677     0.05870
C962        C  0.75038753  0.57773630  0.13892233    -0.02680
Br963      Br  0.76743206  0.55631951  0.16132380    -0.02380
H964        H  0.72788496  0.54369294  0.08853529     0.09780
H965        H  0.74811862  0.64188475  0.14918779     0.07800
Br966      Br  0.71025647  0.62961659  0.07469281    -0.02800
C967        C  0.92180706  0.63843897  0.10768120    -0.09440
C968        C  0.90241212  0.62114340  0.07369799     0.06760
C969        C  0.87193048  0.60980205  0.07861744    -0.03210
C970        C  0.86153826  0.61699522  0.11607355    -0.07660
C971        C  0.88093277  0.63529158  0.14965042     0.05870
C972        C  0.91140197  0.64554219  0.14553550    -0.02680
Br973      Br  0.93984868  0.66821212  0.19052379    -0.02380
H974        H  0.94525075  0.64685727  0.10443604     0.09780
H975        H  0.83802595  0.60839129  0.11858802     0.07800
Br976      Br  0.84328872  0.58345814  0.03586580    -0.02800
C977        C  0.91588219  0.65999328  0.41433475    -0.09440
C978        C  0.91491852  0.63243365  0.41296100     0.06760
C979        C  0.90426965  0.61433496  0.37451090    -0.03210
C980        C  0.89321979  0.62282930  0.34070029    -0.07660
C981        C  0.89180596  0.64891025  0.34378746     0.05870
C982        C  0.90409315  0.66810928  0.38086646    -0.02680
Br983      Br  0.90321078  0.70420805  0.39047962    -0.02380
H984        H  0.92460333  0.67479099  0.44278737     0.09780
H985        H  0.88455780  0.60809315  0.31216823     0.07800
Br986      Br  0.90095626  0.57626072  0.36576537    -0.02800
C987        C  0.87556121  0.73595742  0.11298885    -0.09440
C988        C  0.85988616  0.73785971  0.14901024     0.06760
C989        C  0.85179727  0.75973037  0.14910540    -0.03210
C990        C  0.85846020  0.77812218  0.11303003    -0.07660
C991        C  0.87324651  0.77535423  0.07668073     0.05870
C992        C  0.88238654  0.75447610  0.07728404    -0.02680
Br993      Br  0.90547849  0.75120043  0.03111581    -0.02380
H994        H  0.88251557  0.71983725  0.11236571     0.09780
H995        H  0.85179347  0.79446884  0.11314134     0.07800
Br996      Br  0.83299738  0.76690196  0.19780638    -0.02800
C997        C  0.89021293  0.78590769  0.38892659    -0.09440
C998        C  0.86681736  0.78024077  0.41702679     0.06760
C999        C  0.83772323  0.75740544  0.40590568    -0.03210
C1000       C  0.83267413  0.73944594  0.36864418    -0.07660
C1001       C  0.85628158  0.74336770  0.34197386     0.05870
C1002       C  0.88532246  0.76785428  0.35165326    -0.02680
Br1003     Br  0.91974274  0.77780658  0.31719486    -0.02380
H1004       H  0.91269562  0.80363556  0.39715003     0.09780
H1005       H  0.81005602  0.72165753  0.36138688     0.07800
Br1006     Br  0.80414156  0.74970522  0.44068872    -0.02800
C1007       C  0.57602416  0.01169078  0.47611890    -0.09440
C1008       C  0.56683393  0.52651785  0.00505937     0.06760
C1009       C  0.58828207  0.55024621  0.03181875    -0.03210
C1010       C  0.61800337  0.55882567  0.02873800    -0.07660
C1011       C  0.62701822  0.54353600  0.00045239     0.05870
C1012       C  0.60560865  0.01962146  0.47415361    -0.02680
Br1013     Br  0.61468953  0.99489536  0.43819478    -0.02380
H1014       H  0.55991511  0.99317696  0.45560336     0.09780
H1015       H  0.63414421  0.57717208  0.04947417     0.07800
Br1016     Br  0.57842696  0.56981777  0.07646654    -0.02800
C1017       C  0.94532164  0.88943054  0.47584121    -0.09440
C1018       C  0.92141503  0.87596974  0.00519688     0.06760
C1019       C  0.91752354  0.89459163  0.03521827    -0.03210
C1020       C  0.93806981  0.92583244  0.03652650    -0.07660
C1021       C  0.96230377  0.93915851  0.00767592     0.05870
C1022       C  0.96531591  0.92064227  0.47629729    -0.02680
Br1023     Br  0.49477516  0.93663033  0.43097008    -0.02380
H1024       H  0.94844485  0.87557643  0.45213989     0.09780
H1025       H  0.93502217  0.93981821  0.06006674     0.07800
Br1026     Br  0.88361350  0.87904840  0.07301824    -0.02800
C1027       C  0.97903642  0.58758502  0.02356126    -0.09440
C1028       C  0.95560349  0.57871074  0.99452474     0.06760
C1029       C  0.94467387  0.55157691  0.47021883    -0.03210
C1030       C  0.95847131  0.53517398  0.47281355    -0.07660
C1031       C  0.98177161  0.54376897  0.00209129     0.05870
C1032       C  0.49150890  0.56998159  0.02844485    -0.02680
Br1033     Br  0.51854451  0.58078839  0.07561366    -0.02380
H1034       H  0.48676178  0.60761901  0.04401432     0.09780
H1035       H  0.94998228  0.51468793  0.45315882     0.07800
Br1036     Br  0.90821574  0.53284887  0.43879278    -0.02800
C1037       C  0.99345860  0.52358464  0.00648905     0.02850
C1038       C  0.97340614  0.99215695  0.00877981    -0.13300
C1039       C  0.98358528  0.97231811  0.50980672     0.00350
C1040       C  0.51414762  0.98418941  0.51150338    -0.11830
C1041       C  0.53462492  0.51539323  0.50833719     0.02840
C1042       C  0.52412813  0.53496247  0.00512671    -0.11250
H1043       H  0.94973803  0.98299272  0.00852097     0.08430
H1044       H  0.52202577  0.96893317  0.51414684     0.05960
H1045       H  0.53967526  0.55885974  0.00046876     0.05810
C1046       C  0.90113024  0.84259540  0.50329429     0.02850
C1047       C  0.89051041  0.82765804  0.96286488    -0.13300
C1048       C  0.87384597  0.79604005  0.95981930     0.00350
C1049       C  0.86729568  0.77922995  0.49757347    -0.11830
C1050       C  0.87823871  0.79367599  0.53799326     0.02840
C1051       C  0.89502399  0.82537872  0.54078452    -0.11250
H1052       H  0.89587977  0.84060106  0.93349716     0.08430
H1053       H  0.85486100  0.75475810  0.49520013     0.05960
H1054       H  0.90443318  0.83654663  0.57175377     0.05810
C1055       C  0.94085049  0.59622255  0.49376361     0.02850
C1056       C  0.93733706  0.60740374  0.95462811    -0.13300
C1057       C  0.92119039  0.62186062  0.95392582     0.00350
C1058       C  0.91006145  0.62620116  0.49350750    -0.11830
C1059       C  0.91438873  0.61617196  0.53274873     0.02840
C1060       C  0.92982431  0.60127542  0.53273582    -0.11250
H1061       H  0.94726030  0.60486964  0.92509653     0.08430
H1062       H  0.89749628  0.63711751  0.49398226     0.05960
H1063       H  0.93254188  0.59286209  0.56298962     0.05810
O1064       O  0.77812228  0.64002926  0.78612785    -0.85630
O1065       O  0.82351743  0.69815693  0.80287913    -0.82680
C1066       C  0.84960545  0.72062786  0.80654447     0.97830
O1067       O  0.86956540  0.72349851  0.78030730    -0.82710
O1068       O  0.88065261  0.67993665  0.80303991    -0.85360
C1069       C  0.87613485  0.65406488  0.80884018     1.02360
O1070       O  0.85851939  0.63216896  0.78401713    -0.78120
O1071       O  0.80386870  0.62122186  0.80876220    -0.78310
C1072       C  0.78264032  0.62524242  0.81354053     1.02310
O1073       O  0.79077437  0.65118873  0.69439516    -0.85630
O1074       O  0.83208053  0.71088650  0.71187682    -0.82510
C1075       C  0.85309560  0.71713087  0.68560593     0.97850
O1076       O  0.86866143  0.70579634  0.69037933    -0.82720
O1077       O  0.88426888  0.66565672  0.71221307    -0.85330
C1078       C  0.86819375  0.64289573  0.68762380     1.02320
O1079       O  0.84078883  0.62633347  0.69492107    -0.78140
O1080       O  0.78444106  0.60934290  0.71922486    -0.78290
C1081       C  0.77859158  0.62291620  0.69150040     1.02290
Cr1082     Cr  0.80805225  0.67423700  0.74879653     1.93740
Cr1083     Cr  0.87292182  0.69162709  0.74672963     1.93210
Cr1084     Cr  0.82279327  0.62511953  0.75165133     1.39100
O1085       O  0.83464147  0.66373119  0.74922124    -1.23380
C1086       C  0.65858759  0.55270937  0.50048642     0.02850
C1087       C  0.67281226  0.55631837  0.54024202    -0.13300
C1088       C  0.70334846  0.56817647  0.54154675     0.00350
C1089       C  0.71953122  0.57488812  0.50274209    -0.11830
C1090       C  0.70600131  0.57203625  0.96262038     0.02840
C1091       C  0.67545480  0.56110667  0.96187564    -0.11250
H1092       H  0.66047361  0.55157553  0.57048650     0.08430
H1093       H  0.74325165  0.58446009  0.50420750     0.05960
H1094       H  0.66510547  0.56083534  0.93172579     0.05810
C1095       C  0.73653976  0.58356665  0.84653159    -0.09440
C1096       C  0.76265724  0.61204233  0.85095934     0.06760
C1097       C  0.77015503  0.62689766  0.89174423    -0.03210
C1098       C  0.75108597  0.61375230  0.92708539    -0.07660
C1099       C  0.72489126  0.58505132  0.92323568     0.05870
C1100       C  0.71787345  0.56976309  0.88236052    -0.02680
Br1101     Br  0.68485098  0.52918616  0.87403224    -0.02380
H1102       H  0.73111321  0.57165371  0.81536326     0.09780
H1103       H  0.75696894  0.62604552  0.95794855     0.07800
Br1104     Br  0.80666154  0.66472018  0.90117151    -0.02800
C1105       C  0.73190805  0.56494565  0.60242029    -0.09440
C1106       C  0.71953606  0.57971785  0.58295303     0.06760
C1107       C  0.72525894  0.60742285  0.60073636    -0.03210
C1108       C  0.74363257  0.62030057  0.63683980    -0.07660
C1109       C  0.75688222  0.60618343  0.65604473     0.05870
C1110       C  0.75035704  0.57779436  0.63890144    -0.02680
Br1111     Br  0.76739477  0.55635464  0.66124008    -0.02380
H1112       H  0.72785054  0.54378905  0.58847011     0.09780
H1113       H  0.74810014  0.64194414  0.64930565     0.07800
Br1114     Br  0.71023943  0.62973916  0.57483309    -0.02800
C1115       C  0.92178561  0.63846321  0.60766111    -0.09440
C1116       C  0.90238802  0.62117926  0.57367490     0.06760
C1117       C  0.87190848  0.60984454  0.57859482    -0.03210
C1118       C  0.86151973  0.61702918  0.61606147    -0.07660
C1119       C  0.88091651  0.63530989  0.64964631     0.05870
C1120       C  0.91138448  0.64555816  0.64552533    -0.02680
Br1121     Br  0.93983488  0.66821218  0.69051637    -0.02380
H1122       H  0.94522793  0.64687561  0.60441271     0.09780
H1123       H  0.83800839  0.60842933  0.61857944     0.07800
Br1124     Br  0.84326544  0.58351793  0.53583282    -0.02800
C1125       C  0.91586327  0.65994720  0.91435388    -0.09440
C1126       C  0.91489652  0.63238620  0.91297864     0.06760
C1127       C  0.90422995  0.61428077  0.87453700    -0.03210
C1128       C  0.89317428  0.62277456  0.84073123    -0.07660
C1129       C  0.89177342  0.64886363  0.84381442     0.05870
C1130       C  0.90407065  0.66806415  0.88089103    -0.02680
Br1131     Br  0.90320178  0.70417021  0.89050850    -0.02380
H1132       H  0.92459341  0.67474758  0.94280262     0.09780
H1133       H  0.88450129  0.60803416  0.81220501     0.07800
Br1134     Br  0.90090379  0.57619998  0.86580295    -0.02800
C1135       C  0.87557512  0.73596003  0.61303071    -0.09440
C1136       C  0.85989679  0.73786423  0.64904694     0.06760
C1137       C  0.85180249  0.75973059  0.64912568    -0.03210
C1138       C  0.85846352  0.77811555  0.61304127    -0.07660
C1139       C  0.87325296  0.77534520  0.57669732     0.05870
C1140       C  0.88239812  0.75447162  0.57731678    -0.02680
Br1141     Br  0.90549505  0.75119389  0.53115872    -0.02380
H1142       H  0.88253385  0.71984346  0.61241828     0.09780
H1143       H  0.85179291  0.79445895  0.61314158     0.07800
Br1144     Br  0.83299634  0.76690477  0.69781523    -0.02800
C1145       C  0.89021175  0.78592581  0.88893684    -0.09440
C1146       C  0.86681236  0.78026414  0.91702492     0.06760
C1147       C  0.83771957  0.75742723  0.90590306    -0.03210
C1148       C  0.83267525  0.73945923  0.86865461    -0.07660
C1149       C  0.85628646  0.74337382  0.84200045     0.05870
C1150       C  0.88532598  0.76786329  0.85167661    -0.02680
Br1151     Br  0.91974973  0.77780621  0.81723352    -0.02380
H1152       H  0.91269357  0.80365472  0.89716270     0.09780
H1153       H  0.81005780  0.72166989  0.86139580     0.07800
Br1154     Br  0.80413421  0.74973291  0.94067201    -0.02800
C1155       C  0.57602840  0.01169901  0.97611904    -0.09440
C1156       C  0.56679795  0.52658440  0.50509414     0.06760
C1157       C  0.58823924  0.55033342  0.53183552    -0.03210
C1158       C  0.61797019  0.55894984  0.52873209    -0.07660
C1159       C  0.62700261  0.54367719  0.50044345     0.05870
C1160       C  0.60561241  0.01962867  0.97415480    -0.02680
Br1161     Br  0.61469225  0.99490011  0.93819998    -0.02380
H1162       H  0.55991901  0.99318453  0.95560472     0.09780
H1163       H  0.63410482  0.57730809  0.54945904     0.07800
Br1164     Br  0.57836655  0.56988416  0.57649321    -0.02800
C1165       C  0.94532451  0.88944067  0.97584948    -0.09440
C1166       C  0.92141363  0.87595615  0.50519121     0.06760
C1167       C  0.91751988  0.89457719  0.53521221    -0.03210
C1168       C  0.93806296  0.92581933  0.53651887    -0.07660
C1169       C  0.96229651  0.93914830  0.50766764     0.05870
C1170       C  0.96532196  0.92065126  0.97630660    -0.02680
Br1171     Br  0.49478262  0.93663589  0.93098106    -0.02380
H1172       H  0.94844556  0.87558480  0.95214857     0.09780
H1173       H  0.93501372  0.93980367  0.56005974     0.07800
Br1174     Br  0.88361096  0.87903112  0.57301483    -0.02800
C1175       C  0.97896016  0.58756614  0.52361946    -0.09440
C1176       C  0.95554728  0.57870701  0.49455177     0.06760
C1177       C  0.94473076  0.55157947  0.97019492    -0.03210
C1178       C  0.95853903  0.53518578  0.97277070    -0.07660
C1179       C  0.98169079  0.54374925  0.50215483     0.05870
C1180       C  0.49141701  0.56995197  0.52852420    -0.02680
Br1181     Br  0.51840873  0.58072477  0.57574387    -0.02380
H1182       H  0.48667996  0.60759565  0.54408057     0.09780
H1183       H  0.95004472  0.51469660  0.95312179     0.07800
Br1184     Br  0.90825904  0.53283415  0.93880156    -0.02800
loop_ 
_geom_bond_atom_site_label_1 
_geom_bond_atom_site_label_2 
_geom_bond_distance 
_geom_bond_site_symmetry_2 
_ccdc_geom_bond_type 
C1          C298   1.407   1_545  A
C1          C598   1.409       .  A
C1          C291   1.489       .  S
C2          C297   1.407       .  A
C2          C151   1.400       .  A
C2            H7   1.084       .  S
C3          C150   1.400       .  A
C3          C596   1.400       .  A
C3          C133   1.483       .  S
C4          C595   1.400   1_455  A
C4          C301   1.404       .  A
C4            H8   1.083       .  S
C5          C300   1.404   1_545  A
C5          C154   1.409       .  A
C5          C120   1.488       .  S
C6          C593   1.409   1_455  A
C6          C153   1.409       .  A
C6            H9   1.083       .  S
C10          C15   1.407       .  A
C10         C159   1.407   1_554  A
C10         C130   1.484       .  S
C11          C12   1.400       .  A
C11         C158   1.407       .  A
C11          H16   1.084       .  S
C12         C161   1.400       .  A
C12         C110   1.477       .  S
C13          C14   1.401   1_556  A
C13         C160   1.400       .  A
C13          H17   1.084       .  S
C14          C15   1.403       .  A
C14         C103   1.480       .  S
C15          H18   1.084       .  S
C19          C24   1.403   1_556  A
C19         C168   1.412       .  A
C19         C140   1.485       .  S
C20          C21   1.412       .  A
C20         C167   1.412       .  A
C20          H25   1.082       .  S
C21         C170   1.408       .  A
C21          C90   1.501       .  S
C22          C23   1.400   1_556  A
C22         C169   1.408       .  A
C22          H26   1.083       .  S
C23          C24   1.397       .  A
C23          C80   1.479       .  S
C24          H27   1.085       .  S
O28         Cr46   2.019       .  S
O28          C36   1.268       .  A
O29         Cr46   1.961       .  S
O29          C30   1.259       .  A
C30         C113   1.489       .  S
C30          O31   1.267       .  A
O31         Cr47   2.017       .  S
O32         Cr47   1.975       .  S
O32          C33   1.257       .  A
C33          C93   1.488       .  S
C33          O34   1.268       .  A
O34         Cr48   2.011       .  S
O35         Cr48   1.970       .  S
O35          C36   1.258       .  A
C36          C60   1.467       .  S
O37         Cr46   1.965       .  S
O37          C45   1.259       .  A
O38         Cr46   2.016       .  S
O38          C39   1.266       .  A
C39         C100   1.486       .  S
C39          O40   1.259       .  A
O40         Cr47   1.968       .  S
O41         Cr47   2.021       .  S
O41          C42   1.269       .  A
C42          C83   1.485       .  S
C42          O43   1.259       .  A
O43         Cr48   1.961       .  S
O44         Cr48   2.020       .  S
O44          C45   1.267       .  A
C45          C73   1.486       .  S
Cr46         O49   1.766       .  S
Cr47         O49   1.768       .  S
Cr48         O49   1.767       .  S
C50          C51   1.405       .  A
C50         C203   1.407   1_554  A
C50         C123   1.484       .  S
C51          C52   1.399       .  A
C51          H56   1.084       .  S
C52          C53   1.398       .  A
C52          C70   1.475       .  S
C53         C202   1.406   1_554  A
C53          H57   1.084       .  S
C54          C55   1.408       .  A
C54         C201   1.406       .  A
C54          C63   1.489       .  S
C55         C198   1.407       .  A
C55          H58   1.084       .  S
C59          C60   1.401       .  A
C59          C64   1.402       .  A
C59          H66   1.084       .  S
C60          C61   1.403       .  A
C61          C62   1.395       .  A
C61         Br68   1.917       .  S
C62          C63   1.408       .  A
C62          H67   1.084       .  S
C63          C64   1.415       .  A
C64         Br65   1.917       .  S
C69          C70   1.402       .  A
C69          C74   1.405       .  A
C69          H76   1.083       .  S
C70          C71   1.405       .  A
C71          C72   1.394       .  A
C71         Br78   1.921       .  S
C72          C73   1.407       .  A
C72          H77   1.083       .  S
C73          C74   1.417       .  A
C74         Br75   1.920       .  S
C79          C80   1.404       .  A
C79          C84   1.403       .  A
C79          H86   1.083       .  S
C80          C81   1.407       .  A
C81          C82   1.394       .  A
C81         Br88   1.921       .  S
C82          C83   1.408       .  A
C82          H87   1.083       .  S
C83          C84   1.415       .  A
C84         Br85   1.921       .  S
C89          C90   1.411       .  A
C89          C94   1.402       .  A
C89          H96   1.084       .  S
C90          C91   1.416       .  A
C91          C92   1.397       .  A
C91         Br98   1.910       .  S
C92          C93   1.402       .  A
C92          H97   1.084       .  S
C93          C94   1.414       .  A
C94         Br95   1.923       .  S
C99         C100   1.407       .  A
C99         C104   1.396       .  A
C99         H106   1.083       .  S
C100        C101   1.416       .  A
C101        C102   1.402       .  A
C101       Br108   1.921       .  S
C102        C103   1.402       .  A
C102        H107   1.083       .  S
C103        C104   1.409       .  A
C104       Br105   1.922       .  S
C109        C110   1.402       .  A
C109        C114   1.399       .  A
C109        H116   1.084       .  S
C110        C111   1.404       .  A
C111        C112   1.395       .  A
C111       Br118   1.920       .  S
C112        C113   1.410       .  A
C112        H117   1.083       .  S
C113        C114   1.417       .  A
C114       Br115   1.922       .  S
C119        C124   1.399       .  A
C119        C564   1.407       .  A
C119        H126   1.083       .  S
C120        C121   1.411       .  A
C120        C563   1.407   1_554  A
C121        C122   1.397       .  A
C121       Br128   1.913       .  S
C122        C123   1.404       .  A
C122        H127   1.084       .  S
C123        C568   1.409   1_554  A
C124        C567   1.409       .  A
C124       Br125   1.917       .  S
C129        C134   1.395       .  A
C129        C278   1.404       .  A
C129        H136   1.083       .  S
C130        C131   1.412       .  A
C130        C277   1.404   1_554  A
C131        C132   1.401       .  A
C131       Br138   1.920       .  S
C132        C133   1.405       .  A
C132        H137   1.083       .  S
C133        C282   1.412   1_554  A
C134        C281   1.412       .  A
C134       Br727   1.922       .  S
Br135       C726   1.922       .  S
C139        C140   1.404   1_554  A
C139        C736   1.401       .  A
C139        H738   1.083       .  S
C140        C289   1.409       .  A
C141        C142   1.396       .  A
C141        C288   1.409       .  A
C141       Br148   1.912       .  S
C142        C291   1.405       .  A
C142        H147   1.083       .  S
C143        C290   1.405   1_554  A
C143        C736   1.413       .  A
C143        C149   1.489       .  S
C144        C731   1.401       .  A
C144        C735   1.413       .  A
C144       Br145   1.914   1_655  S
H146        C731   1.083       .  S
C149        C446   1.407   1_545  A
C149        C746   1.409       .  A
C150        C445   1.407       .  A
C150        H155   1.084       .  S
C151        C744   1.400       .  A
C151        C281   1.483       .  S
C152        C743   1.400   1_455  A
C152        C449   1.404       .  A
C152        H156   1.083       .  S
C153        C448   1.404   1_545  A
C153        C268   1.488       .  S
C154        C741   1.409   1_455  A
C154        H157   1.083       .  S
C158        C163   1.407       .  A
C158        C278   1.484       .  S
C159        C160   1.400       .  A
C159        H164   1.084       .  S
C160        C258   1.477       .  S
C161        C162   1.401       .  A
C161        H165   1.084       .  S
C162        C163   1.403       .  A
C162        C251   1.480       .  S
C163        H166   1.084       .  S
C167        C172   1.403       .  A
C167        C288   1.485       .  S
C168        C169   1.412       .  A
C168        H173   1.082       .  S
C169        C238   1.501       .  S
C170        C171   1.400       .  A
C170        H174   1.083       .  S
C171        C172   1.397       .  A
C171        C228   1.479       .  S
C172        H175   1.085       .  S
O176       Cr194   2.019       .  S
O176        C184   1.268       .  A
O177       Cr194   1.961       .  S
O177        C178   1.259       .  A
C178        C261   1.489       .  S
C178        O179   1.267       .  A
O179       Cr195   2.017       .  S
O180       Cr195   1.975       .  S
O180        C181   1.257       .  A
C181        C241   1.488       .  S
C181        O182   1.268       .  A
O182       Cr196   2.011       .  S
O183       Cr196   1.970       .  S
O183        C184   1.258       .  A
C184        C208   1.467       .  S
O185       Cr194   1.965       .  S
O185        C193   1.259       .  A
O186       Cr194   2.016       .  S
O186        C187   1.266       .  A
C187        C248   1.486       .  S
C187        O188   1.259       .  A
O188       Cr195   1.968       .  S
O189       Cr195   2.021       .  S
O189        C190   1.269       .  A
C190        C231   1.485       .  S
C190        O191   1.259       .  A
O191       Cr196   1.961       .  S
O192       Cr196   2.020       .  S
O192        C193   1.267       .  A
C193        C221   1.486       .  S
Cr194       O197   1.766       .  S
Cr195       O197   1.768       .  S
Cr196       O197   1.767       .  S
C198        C199   1.405       .  A
C198        C271   1.484       .  S
C199        C200   1.399       .  A
C199        H204   1.084       .  S
C200        C201   1.398       .  A
C200        C218   1.475       .  S
C201        H205   1.084       .  S
C202        C203   1.408       .  A
C202        C211   1.489       .  S
C203        H206   1.084       .  S
C207        C208   1.401       .  A
C207        C212   1.402       .  A
C207        H214   1.084       .  S
C208        C209   1.403       .  A
C209        C210   1.395       .  A
C209       Br216   1.917       .  S
C210        C211   1.408       .  A
C210        H215   1.084       .  S
C211        C212   1.415       .  A
C212       Br213   1.917       .  S
C217        C218   1.402       .  A
C217        C222   1.405       .  A
C217        H224   1.083       .  S
C218        C219   1.405       .  A
C219        C220   1.394       .  A
C219       Br226   1.921       .  S
C220        C221   1.407       .  A
C220        H225   1.083       .  S
C221        C222   1.417       .  A
C222       Br223   1.920       .  S
C227        C228   1.404       .  A
C227        C232   1.403       .  A
C227        H234   1.083       .  S
C228        C229   1.407       .  A
C229        C230   1.394       .  A
C229       Br236   1.921       .  S
C230        C231   1.408       .  A
C230        H235   1.083       .  S
C231        C232   1.415       .  A
C232       Br233   1.921       .  S
C237        C238   1.411       .  A
C237        C242   1.402       .  A
C237        H244   1.084       .  S
C238        C239   1.416       .  A
C239        C240   1.397       .  A
C239       Br246   1.910       .  S
C240        C241   1.402       .  A
C240        H245   1.084       .  S
C241        C242   1.414       .  A
C242       Br243   1.923       .  S
C247        C248   1.407       .  A
C247        C252   1.396       .  A
C247        H254   1.083       .  S
C248        C249   1.416       .  A
C249        C250   1.402       .  A
C249       Br256   1.921       .  S
C250        C251   1.402       .  A
C250        H255   1.083       .  S
C251        C252   1.409       .  A
C252       Br253   1.922       .  S
C257        C258   1.402       .  A
C257        C262   1.399       .  A
C257        H264   1.084       .  S
C258        C259   1.404       .  A
C259        C260   1.395       .  A
C259       Br266   1.920       .  S
C260        C261   1.410       .  A
C260        H265   1.083       .  S
C261        C262   1.417       .  A
C262       Br263   1.922       .  S
C267        C416   1.407   1_556  A
C267        C272   1.399       .  A
C267        H274   1.083       .  S
C268        C415   1.407       .  A
C268        C269   1.411       .  A
C269        C270   1.397       .  A
C269       Br276   1.913       .  S
C270        C271   1.404       .  A
C270        H275   1.084       .  S
C271        C420   1.409       .  A
C272        C419   1.409   1_556  A
C272       Br273   1.917       .  S
C277        C282   1.395       .  A
C277        H284   1.083       .  S
C278        C279   1.412       .  A
C279        C280   1.401       .  A
C279       Br286   1.920       .  S
C280        C281   1.405       .  A
C280        H285   1.083       .  S
C282       Br875   1.922       .  S
Br283       C874   1.922       .  S
C287        C288   1.404       .  A
C287        C884   1.401       .  A
C287        H886   1.083       .  S
C289        C290   1.396       .  A
C289       Br296   1.912       .  S
C290        H295   1.083       .  S
C291        C884   1.413       .  A
C292        C879   1.401       .  A
C292        C883   1.413       .  A
C292       Br293   1.914   1_655  S
H294        C879   1.083       .  S
C297        C894   1.409       .  A
C297        C587   1.489       .  S
C298        C447   1.400       .  A
C298        H303   1.084       .  S
C299        C446   1.400       .  A
C299        C892   1.400       .  A
C299        C429   1.483       .  S
C300        C891   1.400   1_455  A
C300        H304   1.083       .  S
C301        C450   1.409       .  A
C301        C416   1.488       .  S
C302        C889   1.409   1_455  A
C302        C449   1.409       .  A
C302        H305   1.083       .  S
C306        C455   1.407   1_554  A
C306        C311   1.407       .  A
C306        C426   1.484       .  S
C307        C454   1.407       .  A
C307        C308   1.400       .  A
C307        H312   1.084       .  S
C308        C457   1.400       .  A
C308        C406   1.477       .  S
C309        C456   1.400       .  A
C309        C310   1.401   1_556  A
C309        H313   1.084       .  S
C310        C311   1.403       .  A
C310        C399   1.480       .  S
C311        H314   1.084       .  S
C315        C464   1.412       .  A
C315        C320   1.403   1_556  A
C315        C436   1.485       .  S
C316        C463   1.412       .  A
C316        C317   1.412       .  A
C316        H321   1.082       .  S
C317        C466   1.408       .  A
C317        C386   1.501       .  S
C318        C465   1.408       .  A
C318        C319   1.400   1_556  A
C318        H322   1.083       .  S
C319        C320   1.397       .  A
C319        C376   1.479       .  S
C320        H323   1.085       .  S
O324       Cr342   2.019       .  S
O324        C332   1.268       .  A
O325       Cr342   1.961       .  S
O325        C326   1.259       .  A
C326        C409   1.489       .  S
C326        O327   1.267       .  A
O327       Cr343   2.017       .  S
O328       Cr343   1.975       .  S
O328        C329   1.257       .  A
C329        C389   1.488       .  S
C329        O330   1.268       .  A
O330       Cr344   2.011       .  S
O331       Cr344   1.970       .  S
O331        C332   1.258       .  A
C332        C356   1.467       .  S
O333       Cr342   1.965       .  S
O333        C341   1.259       .  A
O334       Cr342   2.016       .  S
O334        C335   1.266       .  A
C335        C396   1.486       .  S
C335        O336   1.259       .  A
O336       Cr343   1.968       .  S
O337       Cr343   2.021       .  S
O337        C338   1.269       .  A
C338        C379   1.485       .  S
C338        O339   1.259       .  A
O339       Cr344   1.961       .  S
O340       Cr344   2.020       .  S
O340        C341   1.267       .  A
C341        C369   1.486       .  S
Cr342       O345   1.766       .  S
Cr343       O345   1.768       .  S
Cr344       O345   1.767       .  S
C346        C347   1.405       .  A
C346        C499   1.407   1_554  A
C346        C419   1.484       .  S
C347        C348   1.399       .  A
C347        H352   1.084       .  S
C348        C349   1.398       .  A
C348        C366   1.475       .  S
C349        C498   1.406   1_554  A
C349        H353   1.084       .  S
C350        C497   1.406       .  A
C350        C351   1.408       .  A
C350        C359   1.489       .  S
C351        C494   1.407       .  A
C351        H354   1.084       .  S
C355        C356   1.401       .  A
C355        C360   1.402       .  A
C355        H362   1.084       .  S
C356        C357   1.403       .  A
C357        C358   1.395       .  A
C357       Br364   1.917       .  S
C358        C359   1.408       .  A
C358        H363   1.084       .  S
C359        C360   1.415       .  A
C360       Br361   1.917       .  S
C365        C366   1.402       .  A
C365        C370   1.405       .  A
C365        H372   1.083       .  S
C366        C367   1.405       .  A
C367        C368   1.394       .  A
C367       Br374   1.921       .  S
C368        C369   1.407       .  A
C368        H373   1.083       .  S
C369        C370   1.417       .  A
C370       Br371   1.920       .  S
C375        C376   1.404       .  A
C375        C380   1.403       .  A
C375        H382   1.083       .  S
C376        C377   1.407       .  A
C377        C378   1.394       .  A
C377       Br384   1.921       .  S
C378        C379   1.408       .  A
C378        H383   1.083       .  S
C379        C380   1.415       .  A
C380       Br381   1.921       .  S
C385        C386   1.411       .  A
C385        C390   1.402       .  A
C385        H392   1.084       .  S
C386        C387   1.416       .  A
C387        C388   1.397       .  A
C387       Br394   1.910       .  S
C388        C389   1.402       .  A
C388        H393   1.084       .  S
C389        C390   1.414       .  A
C390       Br391   1.923       .  S
C395        C396   1.407       .  A
C395        C400   1.396       .  A
C395        H402   1.083       .  S
C396        C397   1.416       .  A
C397        C398   1.402       .  A
C397       Br404   1.921       .  S
C398        C399   1.402       .  A
C398        H403   1.083       .  S
C399        C400   1.409       .  A
C400       Br401   1.922       .  S
C405        C406   1.402       .  A
C405        C410   1.400       .  A
C405        H412   1.084       .  S
C406        C407   1.404       .  A
C407        C408   1.395       .  A
C407       Br414   1.920       .  S
C408        C409   1.410       .  A
C408        H413   1.083       .  S
C409        C410   1.418       .  A
C410       Br411   1.922       .  S
C415        C420   1.399       .  A
C415        H422   1.083   1_545  S
C416        C417   1.411       .  A
C417        C418   1.397       .  A
C417       Br424   1.913       .  S
C418        C419   1.404       .  A
C418        H423   1.084       .  S
C420       Br421   1.917   1_545  S
C425        C574   1.404       .  A
C425        C430   1.395       .  A
C425        H432   1.083       .  S
C426        C573   1.404   1_554  A
C426        C427   1.412       .  A
C427        C428   1.401       .  A
C427       Br434   1.920       .  S
C428        C429   1.405       .  A
C428        H433   1.083       .  S
C429        C578   1.412   1_554  A
C430        C577   1.412       .  A
C430      Br1023   1.922       .  S
Br431      C1022   1.922       .  S
C435        C436   1.404   1_554  A
C435       C1032   1.401       .  A
C435       H1034   1.083       .  S
C436        C585   1.409       .  A
C437        C584   1.409       .  A
C437        C438   1.396       .  A
C437       Br444   1.912       .  S
C438        C587   1.405       .  A
C438        H443   1.083       .  S
C439        C586   1.405   1_554  A
C439       C1032   1.413       .  A
C439        C445   1.489       .  S
C440       C1027   1.401       .  A
C440       C1031   1.413       .  A
C440       Br441   1.914   1_655  S
H442       C1027   1.083       .  S
C445       C1042   1.409       .  A
C446        H451   1.084       .  S
C447       C1040   1.400       .  A
C447        C577   1.483       .  S
C448       C1039   1.400   1_455  A
C448        H452   1.083       .  S
C449        C564   1.488       .  S
C450       C1037   1.409   1_455  A
C450        H453   1.083       .  S
C454        C459   1.407       .  A
C454        C574   1.484       .  S
C455        C456   1.400       .  A
C455        H460   1.084       .  S
C456        C554   1.477       .  S
C457        C458   1.401       .  A
C457        H461   1.084       .  S
C458        C459   1.403       .  A
C458        C547   1.480       .  S
C459        H462   1.084       .  S
C463        C468   1.403       .  A
C463        C584   1.485       .  S
C464        C465   1.412       .  A
C464        H469   1.082       .  S
C465        C534   1.501       .  S
C466        C467   1.400       .  A
C466        H470   1.083       .  S
C467        C468   1.397       .  A
C467        C524   1.479       .  S
C468        H471   1.085       .  S
O472       Cr490   2.019       .  S
O472        C480   1.268       .  A
O473       Cr490   1.961       .  S
O473        C474   1.259       .  A
C474        C557   1.489       .  S
C474        O475   1.267       .  A
O475       Cr491   2.017       .  S
O476       Cr491   1.975       .  S
O476        C477   1.257       .  A
C477        C537   1.488       .  S
C477        O478   1.268       .  A
O478       Cr492   2.011       .  S
O479       Cr492   1.969       .  S
O479        C480   1.258       .  A
C480        C504   1.467       .  S
O481       Cr490   1.965       .  S
O481        C489   1.259       .  A
O482       Cr490   2.016       .  S
O482        C483   1.266       .  A
C483        C544   1.486       .  S
C483        O484   1.259       .  A
O484       Cr491   1.968       .  S
O485       Cr491   2.021       .  S
O485        C486   1.269       .  A
C486        C527   1.485       .  S
C486        O487   1.259       .  A
O487       Cr492   1.961       .  S
O488       Cr492   2.020       .  S
O488        C489   1.267       .  A
C489        C517   1.486       .  S
Cr490       O493   1.766       .  S
Cr491       O493   1.768       .  S
Cr492       O493   1.767       .  S
C494        C495   1.405       .  A
C494        C567   1.484       .  S
C495        C496   1.399       .  A
C495        H500   1.084       .  S
C496        C497   1.398       .  A
C496        C514   1.475       .  S
C497        H501   1.084       .  S
C498        C499   1.408       .  A
C498        C507   1.489       .  S
C499        H502   1.084       .  S
C503        C504   1.401       .  A
C503        C508   1.402       .  A
C503        H510   1.084       .  S
C504        C505   1.403       .  A
C505        C506   1.395       .  A
C505       Br512   1.917       .  S
C506        C507   1.408       .  A
C506        H511   1.084       .  S
C507        C508   1.415       .  A
C508       Br509   1.917       .  S
C513        C514   1.402       .  A
C513        C518   1.405       .  A
C513        H520   1.083       .  S
C514        C515   1.405       .  A
C515        C516   1.394       .  A
C515       Br522   1.921       .  S
C516        C517   1.407       .  A
C516        H521   1.083       .  S
C517        C518   1.417       .  A
C518       Br519   1.920       .  S
C523        C524   1.404       .  A
C523        C528   1.403       .  A
C523        H530   1.083       .  S
C524        C525   1.407       .  A
C525        C526   1.394       .  A
C525       Br532   1.921       .  S
C526        C527   1.408       .  A
C526        H531   1.083       .  S
C527        C528   1.415       .  A
C528       Br529   1.921       .  S
C533        C534   1.411       .  A
C533        C538   1.402       .  A
C533        H540   1.084       .  S
C534        C535   1.416       .  A
C535        C536   1.397       .  A
C535       Br542   1.910       .  S
C536        C537   1.402       .  A
C536        H541   1.084       .  S
C537        C538   1.414       .  A
C538       Br539   1.923       .  S
C543        C544   1.407       .  A
C543        C548   1.396       .  A
C543        H550   1.083       .  S
C544        C545   1.416       .  A
C545        C546   1.402       .  A
C545       Br552   1.921       .  S
C546        C547   1.402       .  A
C546        H551   1.083       .  S
C547        C548   1.409       .  A
C548       Br549   1.922       .  S
C553        C554   1.402       .  A
C553        C558   1.399       .  A
C553        H560   1.084       .  S
C554        C555   1.404       .  A
C555        C556   1.395       .  A
C555       Br562   1.920       .  S
C556        C557   1.410       .  A
C556        H561   1.083       .  S
C557        C558   1.417       .  A
C558       Br559   1.922       .  S
C563        C568   1.399       .  A
C563        H570   1.083   1_545  S
C564        C565   1.411       .  A
C565        C566   1.397       .  A
C565       Br572   1.913       .  S
C566        C567   1.404       .  A
C566        H571   1.084       .  S
C568       Br569   1.917   1_545  S
C573        C578   1.395       .  A
C573        H580   1.083       .  S
C574        C575   1.412       .  A
C575        C576   1.401       .  A
C575       Br582   1.920       .  S
C576        C577   1.405       .  A
C576        H581   1.083       .  S
C578      Br1171   1.922       .  S
Br579      C1170   1.922       .  S
C583        C584   1.404       .  A
C583       C1180   1.401       .  A
C583       H1182   1.083       .  S
C585        C586   1.396       .  A
C585       Br592   1.912       .  S
C586        H591   1.083       .  S
C587       C1180   1.413       .  A
C588       C1175   1.401       .  A
C588       C1179   1.413       .  A
C588       Br589   1.914   1_655  S
H590       C1175   1.083       .  S
C593        C890   1.407   1_545  A
C593        C883   1.489       .  S
C594        C889   1.407       .  A
C594        C743   1.400       .  A
C594        H599   1.084       .  S
C595        C742   1.400       .  A
C595        C725   1.483       .  S
C596        C893   1.404       .  A
C596        H600   1.083       .  S
C597        C892   1.404   1_545  A
C597        C746   1.409       .  A
C597        C712   1.488       .  S
C598        C745   1.409       .  A
C598        H601   1.083       .  S
C602        C751   1.407   1_554  A
C602        C607   1.407       .  A
C602        C722   1.484       .  S
C603        C750   1.407       .  A
C603        C604   1.400       .  A
C603        H608   1.084       .  S
C604        C753   1.400       .  A
C604        C702   1.477       .  S
C605        C752   1.400       .  A
C605        C606   1.401   1_556  A
C605        H609   1.084       .  S
C606        C607   1.403       .  A
C606        C695   1.480       .  S
C607        H610   1.084       .  S
C611        C760   1.412       .  A
C611        C616   1.403   1_556  A
C611        C732   1.485       .  S
C612        C759   1.412       .  A
C612        C613   1.412       .  A
C612        H617   1.082       .  S
C613        C762   1.408       .  A
C613        C682   1.501       .  S
C614        C761   1.408       .  A
C614        C615   1.400   1_556  A
C614        H618   1.083       .  S
C615        C616   1.397       .  A
C615        C672   1.479       .  S
C616        H619   1.085       .  S
O620       Cr638   2.019       .  S
O620        C628   1.268       .  A
O621       Cr638   1.961       .  S
O621        C622   1.259       .  A
C622        C705   1.489       .  S
C622        O623   1.267       .  A
O623       Cr639   2.017       .  S
O624       Cr639   1.975       .  S
O624        C625   1.257       .  A
C625        C685   1.488       .  S
C625        O626   1.268       .  A
O626       Cr640   2.011       .  S
O627       Cr640   1.970       .  S
O627        C628   1.258       .  A
C628        C652   1.467       .  S
O629       Cr638   1.965       .  S
O629        C637   1.259       .  A
O630       Cr638   2.016       .  S
O630        C631   1.266       .  A
C631        C692   1.486       .  S
C631        O632   1.259       .  A
O632       Cr639   1.968       .  S
O633       Cr639   2.021       .  S
O633        C634   1.269       .  A
C634        C675   1.485       .  S
C634        O635   1.259       .  A
O635       Cr640   1.961       .  S
O636       Cr640   2.020       .  S
O636        C637   1.267       .  A
C637        C665   1.486       .  S
Cr638       O641   1.766       .  S
Cr639       O641   1.768       .  S
Cr640       O641   1.767       .  S
C642        C643   1.405       .  A
C642        C795   1.407   1_554  A
C642        C715   1.484       .  S
C643        C644   1.399       .  A
C643        H648   1.084       .  S
C644        C645   1.398       .  A
C644        C662   1.475       .  S
C645        C794   1.406   1_554  A
C645        H649   1.084       .  S
C646        C793   1.406       .  A
C646        C647   1.408       .  A
C646        C655   1.489       .  S
C647        C790   1.407       .  A
C647        H650   1.084       .  S
C651        C652   1.401       .  A
C651        C656   1.402       .  A
C651        H658   1.084       .  S
C652        C653   1.403       .  A
C653        C654   1.395       .  A
C653       Br660   1.917       .  S
C654        C655   1.408       .  A
C654        H659   1.084       .  S
C655        C656   1.415       .  A
C656       Br657   1.917       .  S
C661        C662   1.402       .  A
C661        C666   1.405       .  A
C661        H668   1.083       .  S
C662        C663   1.405       .  A
C663        C664   1.394       .  A
C663       Br670   1.921       .  S
C664        C665   1.407       .  A
C664        H669   1.083       .  S
C665        C666   1.417       .  A
C666       Br667   1.920       .  S
C671        C672   1.404       .  A
C671        C676   1.403       .  A
C671        H678   1.083       .  S
C672        C673   1.407       .  A
C673        C674   1.394       .  A
C673       Br680   1.921       .  S
C674        C675   1.408       .  A
C674        H679   1.083       .  S
C675        C676   1.415       .  A
C676       Br677   1.921       .  S
C681        C682   1.411       .  A
C681        C686   1.402       .  A
C681        H688   1.084       .  S
C682        C683   1.416       .  A
C683        C684   1.397       .  A
C683       Br690   1.910       .  S
C684        C685   1.402       .  A
C684        H689   1.084       .  S
C685        C686   1.414       .  A
C686       Br687   1.923       .  S
C691        C692   1.407       .  A
C691        C696   1.396       .  A
C691        H698   1.083       .  S
C692        C693   1.416       .  A
C693        C694   1.402       .  A
C693       Br700   1.921       .  S
C694        C695   1.402       .  A
C694        H699   1.083       .  S
C695        C696   1.409       .  A
C696       Br697   1.922       .  S
C701        C702   1.402       .  A
C701        C706   1.399       .  A
C701        H708   1.084       .  S
C702        C703   1.404       .  A
C703        C704   1.395       .  A
C703       Br710   1.920       .  S
C704        C705   1.410       .  A
C704        H709   1.083       .  S
C705        C706   1.417       .  A
C706       Br707   1.922       .  S
C711       C1156   1.407       .  A
C711        C716   1.399       .  A
C711        H718   1.083       .  S
C712       C1155   1.407   1_554  A
C712        C713   1.411       .  A
C713        C714   1.397       .  A
C713       Br720   1.913       .  S
C714        C715   1.404       .  A
C714        H719   1.084       .  S
C715       C1160   1.409   1_554  A
C716       C1159   1.409       .  A
C716       Br717   1.917       .  S
C721        C870   1.404       .  A
C721        C726   1.395       .  A
C721        H728   1.083       .  S
C722        C869   1.404   1_554  A
C722        C723   1.412       .  A
C723        C724   1.401       .  A
C723       Br730   1.920       .  S
C724        C725   1.405       .  A
C724        H729   1.083       .  S
C725        C874   1.412   1_554  A
C726        C873   1.412       .  A
C731        C732   1.404   1_554  A
C732        C881   1.409       .  A
C733        C880   1.409       .  A
C733        C734   1.396       .  A
C733       Br740   1.912       .  S
C734        C883   1.405       .  A
C734        H739   1.083       .  S
C735        C882   1.405   1_554  A
C735        C741   1.489       .  S
C736       Br737   1.914       .  S
C741       C1038   1.407   1_545  A
C742       C1037   1.407       .  A
C742        H747   1.084       .  S
C743        C873   1.483       .  S
C744       C1041   1.404       .  A
C744        H748   1.083       .  S
C745       C1040   1.404   1_545  A
C745        C860   1.488       .  S
C746        H749   1.083       .  S
C750        C755   1.407       .  A
C750        C870   1.484       .  S
C751        C752   1.400       .  A
C751        H756   1.084       .  S
C752        C850   1.477       .  S
C753        C754   1.401       .  A
C753        H757   1.084       .  S
C754        C755   1.403       .  A
C754        C843   1.480       .  S
C755        H758   1.084       .  S
C759        C764   1.403       .  A
C759        C880   1.485       .  S
C760        C761   1.412       .  A
C760        H765   1.082       .  S
C761        C830   1.501       .  S
C762        C763   1.400       .  A
C762        H766   1.083       .  S
C763        C764   1.397       .  A
C763        C820   1.479       .  S
C764        H767   1.085       .  S
O768       Cr786   2.019       .  S
O768        C776   1.268       .  A
O769       Cr786   1.961       .  S
O769        C770   1.259       .  A
C770        C853   1.489       .  S
C770        O771   1.267       .  A
O771       Cr787   2.017       .  S
O772       Cr787   1.975       .  S
O772        C773   1.257       .  A
C773        C833   1.488       .  S
C773        O774   1.268       .  A
O774       Cr788   2.011       .  S
O775       Cr788   1.970       .  S
O775        C776   1.258       .  A
C776        C800   1.467       .  S
O777       Cr786   1.965       .  S
O777        C785   1.259       .  A
O778       Cr786   2.016       .  S
O778        C779   1.266       .  A
C779        C840   1.486       .  S
C779        O780   1.259       .  A
O780       Cr787   1.968       .  S
O781       Cr787   2.021       .  S
O781        C782   1.269       .  A
C782        C823   1.485       .  S
C782        O783   1.259       .  A
O783       Cr788   1.961       .  S
O784       Cr788   2.020       .  S
O784        C785   1.267       .  A
C785        C813   1.486       .  S
Cr786       O789   1.766       .  S
Cr787       O789   1.768       .  S
Cr788       O789   1.767       .  S
C790        C791   1.405       .  A
C790        C863   1.484       .  S
C791        C792   1.399       .  A
C791        H796   1.084       .  S
C792        C793   1.398       .  A
C792        C810   1.475       .  S
C793        H797   1.084       .  S
C794        C795   1.408       .  A
C794        C803   1.489       .  S
C795        H798   1.084       .  S
C799        C800   1.401       .  A
C799        C804   1.402       .  A
C799        H806   1.084       .  S
C800        C801   1.403       .  A
C801        C802   1.395       .  A
C801       Br808   1.917       .  S
C802        C803   1.408       .  A
C802        H807   1.084       .  S
C803        C804   1.415       .  A
C804       Br805   1.917       .  S
C809        C810   1.402       .  A
C809        C814   1.405       .  A
C809        H816   1.083       .  S
C810        C811   1.405       .  A
C811        C812   1.394       .  A
C811       Br818   1.921       .  S
C812        C813   1.407       .  A
C812        H817   1.083       .  S
C813        C814   1.417       .  A
C814       Br815   1.920       .  S
C819        C820   1.404       .  A
C819        C824   1.403       .  A
C819        H826   1.083       .  S
C820        C821   1.407       .  A
C821        C822   1.394       .  A
C821       Br828   1.921       .  S
C822        C823   1.408       .  A
C822        H827   1.083       .  S
C823        C824   1.415       .  A
C824       Br825   1.921       .  S
C829        C830   1.411       .  A
C829        C834   1.402       .  A
C829        H836   1.084       .  S
C830        C831   1.416       .  A
C831        C832   1.397       .  A
C831       Br838   1.910       .  S
C832        C833   1.402       .  A
C832        H837   1.084       .  S
C833        C834   1.414       .  A
C834       Br835   1.923       .  S
C839        C840   1.407       .  A
C839        C844   1.396       .  A
C839        H846   1.083       .  S
C840        C841   1.416       .  A
C841        C842   1.402       .  A
C841       Br848   1.921       .  S
C842        C843   1.402       .  A
C842        H847   1.083       .  S
C843        C844   1.409       .  A
C844       Br845   1.922       .  S
C849        C850   1.402       .  A
C849        C854   1.399       .  A
C849        H856   1.084       .  S
C850        C851   1.404       .  A
C851        C852   1.395       .  A
C851       Br858   1.920       .  S
C852        C853   1.410       .  A
C852        H857   1.083       .  S
C853        C854   1.417       .  A
C854       Br855   1.922       .  S
C859       C1008   1.407   1_556  A
C859        C864   1.399       .  A
C859        H866   1.083       .  S
C860       C1007   1.407       .  A
C860        C861   1.411       .  A
C861        C862   1.397       .  A
C861       Br868   1.913       .  S
C862        C863   1.404       .  A
C862        H867   1.084       .  S
C863       C1012   1.409       .  A
C864       C1011   1.409   1_556  A
C864       Br865   1.917       .  S
C869        C874   1.395       .  A
C869        H876   1.083       .  S
C870        C871   1.412       .  A
C871        C872   1.401       .  A
C871       Br878   1.920       .  S
C872        C873   1.405       .  A
C872        H877   1.083       .  S
C879        C880   1.404       .  A
C881        C882   1.396       .  A
C881       Br888   1.912       .  S
C882        H887   1.083       .  S
C884       Br885   1.914       .  S
C889       C1179   1.489       .  S
C890       C1039   1.400       .  A
C890        H895   1.084       .  S
C891       C1038   1.400       .  A
C891       C1021   1.483       .  S
C892        H896   1.083       .  S
C893       C1042   1.409       .  A
C893       C1008   1.488       .  S
C894       C1041   1.409       .  A
C894        H897   1.083       .  S
C898       C1047   1.407   1_554  A
C898        C903   1.407       .  A
C898       C1018   1.484       .  S
C899       C1046   1.407       .  A
C899        C900   1.400       .  A
C899        H904   1.084       .  S
C900       C1049   1.400       .  A
C900        C998   1.477       .  S
C901       C1048   1.400       .  A
C901        C902   1.401   1_556  A
C901        H905   1.084       .  S
C902        C903   1.403       .  A
C902        C991   1.480       .  S
C903        H906   1.084       .  S
C907       C1056   1.412       .  A
C907        C912   1.403   1_556  A
C907       C1028   1.485       .  S
C908       C1055   1.412       .  A
C908        C909   1.412       .  A
C908        H913   1.082       .  S
C909       C1058   1.408       .  A
C909        C978   1.501       .  S
C910       C1057   1.408       .  A
C910        C911   1.400   1_556  A
C910        H914   1.083       .  S
C911        C912   1.397       .  A
C911        C968   1.479       .  S
C912        H915   1.085       .  S
O916       Cr934   2.019       .  S
O916        C924   1.268       .  A
O917       Cr934   1.961       .  S
O917        C918   1.259       .  A
C918       C1001   1.489       .  S
C918        O919   1.267       .  A
O919       Cr935   2.017       .  S
O920       Cr935   1.975       .  S
O920        C921   1.257       .  A
C921        C981   1.488       .  S
C921        O922   1.268       .  A
O922       Cr936   2.011       .  S
O923       Cr936   1.970       .  S
O923        C924   1.258       .  A
C924        C948   1.467       .  S
O925       Cr934   1.965       .  S
O925        C933   1.259       .  A
O926       Cr934   2.016       .  S
O926        C927   1.266       .  A
C927        C988   1.486       .  S
C927        O928   1.259       .  A
O928       Cr935   1.968       .  S
O929       Cr935   2.021       .  S
O929        C930   1.269       .  A
C930        C971   1.485       .  S
C930        O931   1.259       .  A
O931       Cr936   1.961       .  S
O932       Cr936   2.020       .  S
O932        C933   1.267       .  A
C933        C961   1.486       .  S
Cr934       O937   1.766       .  S
Cr935       O937   1.768       .  S
Cr936       O937   1.767       .  S
C938        C939   1.405       .  A
C938       C1091   1.407   1_554  A
C938       C1011   1.484       .  S
C939        C940   1.399       .  A
C939        H944   1.084       .  S
C940        C941   1.398       .  A
C940        C958   1.475       .  S
C941       C1090   1.406   1_554  A
C941        H945   1.084       .  S
C942       C1089   1.406       .  A
C942        C943   1.408       .  A
C942        C951   1.489       .  S
C943       C1086   1.407       .  A
C943        H946   1.084       .  S
C947        C948   1.401       .  A
C947        C952   1.402       .  A
C947        H954   1.084       .  S
C948        C949   1.403       .  A
C949        C950   1.395       .  A
C949       Br956   1.917       .  S
C950        C951   1.408       .  A
C950        H955   1.084       .  S
C951        C952   1.415       .  A
C952       Br953   1.917       .  S
C957        C958   1.402       .  A
C957        C962   1.405       .  A
C957        H964   1.083       .  S
C958        C959   1.405       .  A
C959        C960   1.394       .  A
C959       Br966   1.921       .  S
C960        C961   1.407       .  A
C960        H965   1.083       .  S
C961        C962   1.417       .  A
C962       Br963   1.920       .  S
C967        C968   1.404       .  A
C967        C972   1.403       .  A
C967        H974   1.083       .  S
C968        C969   1.407       .  A
C969        C970   1.394       .  A
C969       Br976   1.921       .  S
C970        C971   1.408       .  A
C970        H975   1.083       .  S
C971        C972   1.415       .  A
C972       Br973   1.921       .  S
C977        C978   1.411       .  A
C977        C982   1.402       .  A
C977        H984   1.084       .  S
C978        C979   1.416       .  A
C979        C980   1.397       .  A
C979       Br986   1.910       .  S
C980        C981   1.402       .  A
C980        H985   1.084       .  S
C981        C982   1.414       .  A
C982       Br983   1.923       .  S
C987        C988   1.407       .  A
C987        C992   1.396       .  A
C987        H994   1.083       .  S
C988        C989   1.416       .  A
C989        C990   1.402       .  A
C989       Br996   1.921       .  S
C990        C991   1.402       .  A
C990        H995   1.083       .  S
C991        C992   1.409       .  A
C992       Br993   1.922       .  S
C997        C998   1.402       .  A
C997       C1002   1.400       .  A
C997       H1004   1.084       .  S
C998        C999   1.404       .  A
C999       C1000   1.395       .  A
C999      Br1006   1.920       .  S
C1000      C1001   1.410       .  A
C1000      H1005   1.083       .  S
C1001      C1002   1.418       .  A
C1002     Br1003   1.922       .  S
C1007      C1012   1.399       .  A
C1007      H1014   1.083   1_545  S
C1008      C1009   1.411       .  A
C1009      C1010   1.397       .  A
C1009     Br1016   1.913       .  S
C1010      C1011   1.404       .  A
C1010      H1015   1.084       .  S
C1012     Br1013   1.917   1_545  S
C1017      C1166   1.404       .  A
C1017      C1022   1.395       .  A
C1017      H1024   1.083       .  S
C1018      C1165   1.404   1_554  A
C1018      C1019   1.412       .  A
C1019      C1020   1.401       .  A
C1019     Br1026   1.920       .  S
C1020      C1021   1.405       .  A
C1020      H1025   1.083       .  S
C1021      C1170   1.412   1_554  A
C1022      C1169   1.412       .  A
C1027      C1028   1.404   1_554  A
C1028      C1177   1.409       .  A
C1029      C1176   1.409       .  A
C1029      C1030   1.396       .  A
C1029     Br1036   1.912       .  S
C1030      C1179   1.405       .  A
C1030      H1035   1.083       .  S
C1031      C1178   1.405   1_554  A
C1031      C1037   1.489       .  S
C1032     Br1033   1.914       .  S
C1038      H1043   1.084       .  S
C1039      C1169   1.483       .  S
C1040      H1044   1.083       .  S
C1041      C1156   1.488       .  S
C1042      H1045   1.083       .  S
C1046      C1051   1.407       .  A
C1046      C1166   1.484       .  S
C1047      C1048   1.400       .  A
C1047      H1052   1.084       .  S
C1048      C1146   1.477       .  S
C1049      C1050   1.401       .  A
C1049      H1053   1.084       .  S
C1050      C1051   1.403       .  A
C1050      C1139   1.480       .  S
C1051      H1054   1.084       .  S
C1055      C1060   1.403       .  A
C1055      C1176   1.485       .  S
C1056      C1057   1.412       .  A
C1056      H1061   1.082       .  S
C1057      C1126   1.501       .  S
C1058      C1059   1.400       .  A
C1058      H1062   1.083       .  S
C1059      C1060   1.397       .  A
C1059      C1116   1.479       .  S
C1060      H1063   1.085       .  S
O1064     Cr1082   2.019       .  S
O1064      C1072   1.268       .  A
O1065     Cr1082   1.961       .  S
O1065      C1066   1.259       .  A
C1066      C1149   1.489       .  S
C1066      O1067   1.267       .  A
O1067     Cr1083   2.017       .  S
O1068     Cr1083   1.975       .  S
O1068      C1069   1.257       .  A
C1069      C1129   1.488       .  S
C1069      O1070   1.268       .  A
O1070     Cr1084   2.011       .  S
O1071     Cr1084   1.969       .  S
O1071      C1072   1.258       .  A
C1072      C1096   1.467       .  S
O1073     Cr1082   1.965       .  S
O1073      C1081   1.259       .  A
O1074     Cr1082   2.016       .  S
O1074      C1075   1.266       .  A
C1075      C1136   1.486       .  S
C1075      O1076   1.259       .  A
O1076     Cr1083   1.968       .  S
O1077     Cr1083   2.021       .  S
O1077      C1078   1.269       .  A
C1078      C1119   1.485       .  S
C1078      O1079   1.259       .  A
O1079     Cr1084   1.961       .  S
O1080     Cr1084   2.020       .  S
O1080      C1081   1.267       .  A
C1081      C1109   1.486       .  S
Cr1082     O1085   1.766       .  S
Cr1083     O1085   1.768       .  S
Cr1084     O1085   1.767       .  S
C1086      C1087   1.405       .  A
C1086      C1159   1.484       .  S
C1087      C1088   1.399       .  A
C1087      H1092   1.084       .  S
C1088      C1089   1.398       .  A
C1088      C1106   1.475       .  S
C1089      H1093   1.084       .  S
C1090      C1091   1.408       .  A
C1090      C1099   1.489       .  S
C1091      H1094   1.084       .  S
C1095      C1096   1.401       .  A
C1095      C1100   1.402       .  A
C1095      H1102   1.084       .  S
C1096      C1097   1.403       .  A
C1097      C1098   1.395       .  A
C1097     Br1104   1.917       .  S
C1098      C1099   1.408       .  A
C1098      H1103   1.084       .  S
C1099      C1100   1.415       .  A
C1100     Br1101   1.917       .  S
C1105      C1106   1.402       .  A
C1105      C1110   1.405       .  A
C1105      H1112   1.083       .  S
C1106      C1107   1.405       .  A
C1107      C1108   1.394       .  A
C1107     Br1114   1.921       .  S
C1108      C1109   1.407       .  A
C1108      H1113   1.083       .  S
C1109      C1110   1.417       .  A
C1110     Br1111   1.920       .  S
C1115      C1116   1.404       .  A
C1115      C1120   1.403       .  A
C1115      H1122   1.083       .  S
C1116      C1117   1.407       .  A
C1117      C1118   1.394       .  A
C1117     Br1124   1.921       .  S
C1118      C1119   1.408       .  A
C1118      H1123   1.083       .  S
C1119      C1120   1.415       .  A
C1120     Br1121   1.921       .  S
C1125      C1126   1.411       .  A
C1125      C1130   1.402       .  A
C1125      H1132   1.084       .  S
C1126      C1127   1.416       .  A
C1127      C1128   1.397       .  A
C1127     Br1134   1.910       .  S
C1128      C1129   1.402       .  A
C1128      H1133   1.084       .  S
C1129      C1130   1.414       .  A
C1130     Br1131   1.923       .  S
C1135      C1136   1.407       .  A
C1135      C1140   1.396       .  A
C1135      H1142   1.083       .  S
C1136      C1137   1.416       .  A
C1137      C1138   1.402       .  A
C1137     Br1144   1.921       .  S
C1138      C1139   1.402       .  A
C1138      H1143   1.083       .  S
C1139      C1140   1.409       .  A
C1140     Br1141   1.922       .  S
C1145      C1146   1.402       .  A
C1145      C1150   1.399       .  A
C1145      H1152   1.084       .  S
C1146      C1147   1.404       .  A
C1147      C1148   1.395       .  A
C1147     Br1154   1.920       .  S
C1148      C1149   1.410       .  A
C1148      H1153   1.083       .  S
C1149      C1150   1.417       .  A
C1150     Br1151   1.922       .  S
C1155      C1160   1.399       .  A
C1155      H1162   1.083   1_545  S
C1156      C1157   1.411       .  A
C1157      C1158   1.397       .  A
C1157     Br1164   1.913       .  S
C1158      C1159   1.404       .  A
C1158      H1163   1.084       .  S
C1160     Br1161   1.917   1_545  S
C1165      C1170   1.395       .  A
C1165      H1172   1.083       .  S
C1166      C1167   1.412       .  A
C1167      C1168   1.401       .  A
C1167     Br1174   1.920       .  S
C1168      C1169   1.405       .  A
C1168      H1173   1.083       .  S
C1175      C1176   1.404       .  A
C1177      C1178   1.396       .  A
C1177     Br1184   1.912       .  S
C1178      H1183   1.083       .  S
C1180     Br1181   1.914       .  S
