geometry optimzed in LAMMPS
_audit_creation_date              2020-12-01 
_audit_creation_method            'lammps2cif' 
_symmetry_space_group_name_H-M    'P1' 
_symmetry_Int_Tables_number       1 
_symmetry_cell_setting            triclinic 
loop_ 
_symmetry_equiv_pos_as_xyz 
  x,y,z 
_cell_length_a                    38.104468 
_cell_length_b                    40.03271227939444 
_cell_length_c                    42.2337273112697 
_cell_angle_alpha                 83.32611977621768 
_cell_angle_beta                  89.5816602518848 
_cell_angle_gamma                 124.16994385377471 
loop_ 
_atom_site_label 
_atom_site_type_symbol 
_atom_site_fract_x 
_atom_site_fract_y 
_atom_site_fract_z 
_atom_site_charge 
C1          C  0.36263766  0.13764357  0.98513679     0.81800
N2          N  0.38500853  0.17888111  0.98262497    -0.76500
C3          C  0.36413933  0.19742259  0.98143608     0.84300
N4          N  0.32103258  0.17482346  0.98218535    -0.76400
C5          C  0.29873415  0.13360220  0.98467080     0.84400
N6          N  0.31957808  0.11509425  0.98582115    -0.78200
C7          C  0.36849852  0.12507928  0.23551266     0.81800
N8          N  0.32558845  0.10355041  0.23427442    -0.76500
C9          C  0.30526903  0.12261152  0.23428069     0.84300
N10         N  0.32801124  0.16337029  0.23525303    -0.76400
C11         C  0.37089630  0.18504949  0.23646922     0.84400
N12         N  0.39118559  0.16592232  0.23645114    -0.78200
C13         C  0.12527020  0.36217165  0.35359427     0.81800
N14         N  0.16818211  0.38370221  0.35482209    -0.76500
C15         C  0.18850209  0.36464217  0.35480876     0.84300
N16         N  0.16575866  0.32388258  0.35383992    -0.76400
C17         C  0.12287159  0.30220144  0.35263406     0.84400
N18         N  0.10258204  0.32132780  0.35265925    -0.78200
C19         C  0.13114724  0.34961333  0.10395899     0.81800
N20         N  0.17420765  0.37215903  0.10327078    -0.76500
C21         C  0.19504596  0.35364568  0.10442707     0.84300
N22         N  0.17274247  0.31242320  0.10692244    -0.76400
C23         C  0.12963496  0.28982766  0.10767538     0.84400
N24         N  0.10877161  0.30837480  0.10648055    -0.78200
O25         O  0.07669316  0.99983175  0.44102305    -0.78500
O26         O  0.46619665  0.05308165  0.41994640    -0.78600
O27         O  0.06096541  0.09705179  0.39036871    -0.78600
O28         O  0.45498996  0.46534724  0.48750821    -0.78500
O29         O  0.00405781  0.07289443  0.36395789    -0.78600
O30         O  0.02258438  0.49572576  0.47981578    -0.78600
O31         O  0.42326816  0.99929245  0.45345550    -0.78500
O32         O  0.09534093  0.06263041  0.42684725    -0.78600
C33         C  0.10255816  0.03788316  0.44118166     1.11100
C34         C  0.44031155  0.03646184  0.44404425     1.11000
C35         C  0.03767926  0.10294941  0.37288022     1.11200
C36         C  0.49084832  0.48399292  0.49806186     1.11000
O37         O  0.50213305  0.42359319  0.46187538    -0.78500
O38         O  0.47359707  0.98793944  0.36077814    -0.78600
O39         O  0.07375651  0.50632120  0.38150252    -0.78600
O40         O  0.40659013  0.45076044  0.40191545    -0.78500
O41         O  0.41814414  0.50759315  0.37440406    -0.78600
O42         O  0.01127629  0.45164902  0.39883448    -0.78600
O43         O  0.44449579  0.41382626  0.43979682    -0.78500
O44         O  0.03899160  0.03963864  0.34575078    -0.78600
Co45       Co  0.01376730  0.47302009  0.43956605     1.51500
Co46       Co  0.46859407  0.01842403  0.39212762     1.51700
Co47       Co  0.06323851  0.04918116  0.38851257     1.51600
Co48       Co  0.44133745  0.46375436  0.44191230     1.51500
O49         O  0.50688038  0.51407068  0.41888885    -1.40500
C50         C  0.46444796  0.39974720  0.45443740     1.11100
C51         C  0.50437728  0.50831928  0.33965537     1.11200
C52         C  0.04640759  0.46834381  0.38270874     1.11100
C53         C  0.39372988  0.46942406  0.38351619     1.11100
O54         O  0.07562663  0.97965789  0.21468707    -0.78500
O55         O  0.48249513  0.03560459  0.19028077    -0.78600
O56         O  0.04927035  0.07343021  0.14930738    -0.78600
O57         O  0.45478542  0.44761298  0.24335658    -0.78500
O58         O  0.99162714  0.06366642  0.12724177    -0.78600
O59         O  0.02018208  0.49931123  0.22832704    -0.78600
O60         O  0.42001500  0.98093360  0.20761469    -0.78500
O61         O  0.08717376  0.03649225  0.18718503    -0.78600
C62         C  0.10003870  0.01782797  0.20557727     1.11100
C63         C  0.44736561  0.01891054  0.20640906     1.11000
C64         C  0.02931463  0.08751115  0.13467575     1.11200
C65         C  0.48940536  0.47892983  0.24945193     1.11000
O66         O  0.48971520  0.41435535  0.22514363    -0.78500
O67         O  0.47117021  0.99153306  0.10929471    -0.78600
O68         O  0.07050541  0.48796435  0.13564678    -0.78600
O69         O  0.39842834  0.42462575  0.16226347    -0.78500
O70         O  0.41707706  0.48742521  0.14809095    -0.78600
O71         O  0.02757141  0.43417061  0.16914951    -0.78600
O72         O  0.43280370  0.39020045  0.19873742    -0.78500
O73         O  0.03876433  0.02190141  0.10159661    -0.78600
Co74       Co  0.02517956  0.46882792  0.19697285     1.51500
Co75       Co  0.47999535  0.01423559  0.14954657     1.51700
Co76       Co  0.05242480  0.02349943  0.14719011     1.51600
Co77       Co  0.43053439  0.43807283  0.20059633     1.51500
O78         O  0.48689081  0.47318326  0.17021746    -1.40500
C79         C  0.45609037  0.38430116  0.21622404     1.11100
C80         C  0.50291233  0.50325996  0.09104681     1.11200
C81         C  0.05346039  0.45079381  0.14505373     1.11100
C82         C  0.39121219  0.44937420  0.14793008     1.11100
C83         C  0.49920565  0.49775064  0.30797336    -0.11700
C84         C  0.49458082  0.48949815  0.28113413    -0.13200
C85         C  0.49512647  0.49082538  0.03078235    -0.11700
C86         C  0.49863868  0.49641431  0.05832824    -0.13200
C87         C  0.10607487  0.24620332  0.11220868    -0.16900
C88         C  0.08711203  0.20962634  0.11721240     0.07100
C89         C  0.06599059  0.16696163  0.12369903     0.09000
C90         C  0.04882276  0.13062033  0.12908037    -0.17800
C91         C  0.35278806  0.43384427  0.13235848    -0.16900
C92         C  0.31874033  0.41790400  0.12147781     0.07100
C93         C  0.27703817  0.39666461  0.11188780     0.09000
C94         C  0.24008930  0.37723939  0.10673333    -0.17800
C95         C  0.10937615  0.36916011  0.10566183    -0.16900
C96         C  0.09328032  0.38701509  0.11022078     0.07100
C97         C  0.07708668  0.40900953  0.11910596     0.09200
C98         C  0.06531473  0.42817701  0.12954705    -0.17800
C99         C  0.09901026  0.25869936  0.35289442    -0.16900
C100        C  0.08111906  0.22220368  0.35457690     0.07100
C101        C  0.06272886  0.17970069  0.35844510     0.09000
C102        C  0.04959364  0.14403608  0.36370604    -0.17800
C103        C  0.23380396  0.38720565  0.35720568    -0.16900
C104        C  0.27151513  0.40576347  0.36042331     0.07100
C105        C  0.31523962  0.42750345  0.36588284     0.09000
C106        C  0.35179916  0.44636700  0.37249880    -0.17800
C107        C  0.05780772  0.44362427  0.36967773    -0.16900
C108        C  0.07028586  0.42337825  0.36248666     0.07100
C109        C  0.08745607  0.40069602  0.35727824     0.09000
C110        C  0.10384467  0.38245237  0.35477276    -0.17800
C111        C  0.43596791  0.04363062  0.21944216    -0.16900
C112        C  0.42348842  0.06387548  0.22663350     0.07100
C113        C  0.40631508  0.08655561  0.23183973     0.09000
C114        C  0.38992452  0.10479809  0.23434114    -0.17800
C115        C  0.39475674  0.22855094  0.23621240    -0.16900
C116        C  0.41264671  0.26504617  0.23453104     0.07100
C117        C  0.43103640  0.30754901  0.23066213     0.09000
C118        C  0.44417264  0.34321376  0.22539966    -0.17800
C119        C  0.14197191  0.04088513  0.21658999    -0.16900
C120        C  0.17853293  0.05975021  0.22320161     0.07100
C121        C  0.22225826  0.08149168  0.22865820     0.09000
C122        C  0.25996882  0.10004937  0.23187692    -0.17800
C123        C  0.38441490  0.11811523  0.48342322    -0.16900
C124        C  0.40050938  0.10025893  0.47886631     0.07100
C125        C  0.41669626  0.07825706  0.46998630     0.09000
C126        C  0.42846137  0.05908250  0.45954911    -0.17800
C127        C  0.38769142  0.24105686  0.47690773    -0.16900
C128        C  0.40665077  0.27763335  0.47190898     0.07100
C129        C  0.42777118  0.32029761  0.46542281     0.09000
C130        C  0.44493947  0.35663841  0.46003832    -0.17800
C131        C  0.25369028  0.11001520  0.48236083    -0.16900
C132        C  0.21673983  0.09059009  0.47720982     0.07100
C133        C  0.17503539  0.06935346  0.46762562     0.09000
C134        C  0.14098461  0.05341445  0.45674958    -0.17800
C135        C  0.36263758  0.13765580  0.48512886     0.81800
N136        N  0.38500760  0.17889282  0.48261786    -0.76500
C137        C  0.36413745  0.19743367  0.48143083     0.84300
N138        N  0.32103074  0.17483359  0.48218128    -0.76400
C139        C  0.29873297  0.13361254  0.48466595     0.84400
N140        N  0.31957792  0.11510537  0.48581452    -0.78200
C141        C  0.36849435  0.12507752  0.73551675     0.81800
N142        N  0.32558422  0.10354847  0.73427879    -0.76500
C143        C  0.30526458  0.12260925  0.73428548     0.84300
N144        N  0.32800652  0.16336801  0.73525786    -0.76400
C145        C  0.37089164  0.18504739  0.73647374     0.84400
N146        N  0.39118128  0.16592068  0.73645527    -0.78200
C147        C  0.12527108  0.36216464  0.85359569     0.81800
N148        N  0.16818270  0.38369613  0.85482447    -0.76500
C149        C  0.18850344  0.36463648  0.85481408     0.84300
N150        N  0.16576086  0.32387656  0.85384713    -0.76400
C151        C  0.12287397  0.30219463  0.85264023     0.84400
N152        N  0.10258362  0.32132032  0.85266253    -0.78200
C153        C  0.13113204  0.34960740  0.60396621     0.81800
N154        N  0.17419201  0.37215472  0.60327688    -0.76500
C155        C  0.19503247  0.35364288  0.60443287     0.84300
N156        N  0.17273007  0.31242054  0.60692915    -0.76400
C157        C  0.12962287  0.28982337  0.60768340     0.84400
N158        N  0.10875742  0.30836893  0.60648867    -0.78200
O159        O  0.07669452  0.99982207  0.94102482    -0.78500
O160        O  0.46619593  0.05307078  0.91995328    -0.78600
O161        O  0.06096702  0.09704328  0.89037329    -0.78600
O162        O  0.45499701  0.46533684  0.98751114    -0.78500
O163        O  0.00405928  0.07288744  0.86396275    -0.78600
O164        O  0.02259497  0.49571868  0.97981474    -0.78600
O165        O  0.42326616  0.99927965  0.95346007    -0.78500
O166        O  0.09534249  0.06262084  0.92684987    -0.78600
C167        C  0.10255968  0.03787326  0.94118375     1.11100
C168        C  0.44030999  0.03644958  0.94405081     1.11000
C169        C  0.03768103  0.10294178  0.87288560     1.11200
C170        C  0.49085633  0.48398274  0.99806307     1.11000
O171        O  0.50213675  0.42358228  0.96187303    -0.78500
O172        O  0.47359545  0.98793173  0.86078103    -0.78600
O173        O  0.07375658  0.50631349  0.88149755    -0.78600
O174        O  0.40659100  0.45075253  0.90192082    -0.78500
O175        O  0.41814377  0.50758702  0.87441389    -0.78600
O176        O  0.01127751  0.45164150  0.89883244    -0.78600
O177        O  0.44449779  0.41381608  0.93979810    -0.78500
O178        O  0.03899261  0.03963193  0.84575345    -0.78600
Co179      Co  0.01377332  0.47301273  0.93956480     1.51500
Co180      Co  0.46859281  0.01841462  0.89213249     1.51700
Co181      Co  0.06323973  0.04917278  0.88851536     1.51600
Co182      Co  0.44134088  0.46374462  0.94191620     1.51500
O183        O  0.50688297  0.51406116  0.91889128    -1.40500
C184        C  0.46445083  0.39973668  0.95443684     1.11100
C185        C  0.50437229  0.50831222  0.83965775     1.11200
C186        C  0.04640713  0.46833595  0.88270459     1.11100
C187        C  0.39373000  0.46941731  0.88352398     1.11100
O188        O  0.07562385  0.97965507  0.71468791    -0.78500
O189        O  0.48249056  0.03560317  0.69028126    -0.78600
O190        O  0.04926608  0.07342702  0.64930961    -0.78600
O191        O  0.45477237  0.44760874  0.74335814    -0.78500
O192        O  0.99162273  0.06366278  0.62724390    -0.78600
O193        O  0.02016839  0.49930750  0.72832743    -0.78600
O194        O  0.42001048  0.98093198  0.70761480    -0.78500
O195        O  0.08717043  0.03648949  0.68718641    -0.78600
C196        C  0.10003549  0.01782513  0.70557860     1.11100
C197        C  0.44736087  0.01890890  0.70640939     1.11000
C198        C  0.02930990  0.08750764  0.63467826     1.11200
C199        C  0.48939231  0.47892539  0.74945342     1.11000
O200        O  0.48970250  0.41435228  0.72514421    -0.78500
O201        O  0.47116718  0.99153277  0.60929471    -0.78600
O202        O  0.07049012  0.48796154  0.63564555    -0.78600
O203        O  0.39841502  0.42462275  0.66226494    -0.78500
O204        O  0.41706335  0.48742243  0.64809372    -0.78600
O205        O  0.02755804  0.43416819  0.66914922    -0.78600
O206        O  0.43279092  0.39019683  0.69873815    -0.78500
O207        O  0.03876172  0.02190038  0.60159757    -0.78600
Co208      Co  0.02516607  0.46882493  0.69697289     1.51500
Co209      Co  0.47999163  0.01423466  0.64954690     1.51700
Co210      Co  0.05242146  0.02349700  0.64719148     1.51600
Co211      Co  0.43052088  0.43806888  0.70059790     1.51500
O212        O  0.48687721  0.47318030  0.67021871    -1.40500
C213        C  0.45607798  0.38429797  0.71622448     1.11100
C214        C  0.50289925  0.50326151  0.59104798     1.11200
C215        C  0.05344593  0.45079120  0.64505284     1.11100
C216        C  0.39119881  0.44937153  0.64793209     1.11100
C217        C  0.49919709  0.49774453  0.80797533    -0.11700
C218        C  0.49456935  0.48949256  0.78113607    -0.13200
C219        C  0.49511570  0.49083347  0.53078178    -0.11700
C220        C  0.49862619  0.49641934  0.55832850    -0.13200
C221        C  0.10606432  0.24619924  0.61221643    -0.16900
C222        C  0.08710344  0.20962246  0.61721904     0.07100
C223        C  0.06598376  0.16695784  0.62370400     0.09000
C224        C  0.04881708  0.13061675  0.62908402    -0.17800
C225        C  0.35277513  0.43384229  0.63236042    -0.16900
C226        C  0.31872737  0.41790291  0.62147977     0.07100
C227        C  0.27702517  0.39666412  0.61189063     0.09000
C228        C  0.24007562  0.37723828  0.60673742    -0.17800
C229        C  0.10935918  0.36915304  0.60566785    -0.16900
C230        C  0.09326366  0.38700865  0.61022457     0.07100
C231        C  0.07707096  0.40900509  0.61910680     0.09200
C232        C  0.06529999  0.42817419  0.62954626    -0.17800
C233        C  0.09901357  0.25869216  0.85290196    -0.16900
C234        C  0.08112269  0.22219671  0.85458495     0.07100
C235        C  0.06273188  0.17969348  0.85845262     0.09000
C236        C  0.04959594  0.14402884  0.86371262    -0.17800
C237        C  0.23380502  0.38720082  0.85721188    -0.16900
C238        C  0.27151609  0.40575897  0.86043010     0.07100
C239        C  0.31524004  0.42749843  0.86589028     0.09000
C240        C  0.35179945  0.44636139  0.87250672    -0.17800
C241        C  0.05780607  0.44361605  0.86967255    -0.16900
C242        C  0.07028418  0.42337001  0.86248181     0.07100
C243        C  0.08745510  0.40068793  0.85727467     0.09000
C244        C  0.10384446  0.38244482  0.85477119    -0.17800
C245        C  0.43596298  0.04362879  0.71944281    -0.16900
C246        C  0.42348368  0.06387361  0.72663469     0.07100
C247        C  0.40631081  0.08655396  0.73184199     0.09000
C248        C  0.38992058  0.10479660  0.73434434    -0.17800
C249        C  0.39475174  0.22854917  0.73621617    -0.16900
C250        C  0.41264001  0.26504407  0.73453377     0.07100
C251        C  0.43102707  0.30754668  0.73066344     0.09000
C252        C  0.44416127  0.34321070  0.72540013    -0.17800
C253        C  0.14196838  0.04088258  0.71659197    -0.16900
C254        C  0.17852892  0.05974779  0.72320445     0.07100
C255        C  0.22225405  0.08148935  0.72866196     0.09000
C256        C  0.25996431  0.10004700  0.73188143    -0.17800
C257        C  0.38441403  0.11810221  0.98343239    -0.16900
C258        C  0.40050811  0.10024517  0.97887570     0.07100
C259        C  0.41669436  0.07824329  0.96999516     0.09000
C260        C  0.42845949  0.05906890  0.95955691    -0.17800
C261        C  0.38769414  0.24104622  0.97691176    -0.16900
C262        C  0.40665341  0.27762254  0.97191150     0.07100
C263        C  0.42777353  0.32028690  0.96542366     0.09000
C264        C  0.44494157  0.35662755  0.96003806    -0.17800
C265        C  0.25369146  0.11000554  0.98236432    -0.16900
C266        C  0.21674147  0.09058065  0.97721250     0.07100
C267        C  0.17503699  0.06934369  0.96762776     0.09000
C268        C  0.14098639  0.05340445  0.95675162    -0.17800
C269        C  0.36264186  0.63764473  0.98513781     0.81800
N270        N  0.38501147  0.67888196  0.98262518    -0.76500
C271        C  0.36414194  0.69742299  0.98143402     0.84300
N272        N  0.32103473  0.67482271  0.98218218    -0.76400
C273        C  0.29873767  0.63360187  0.98466851     0.84400
N274        N  0.31958191  0.61509424  0.98582097    -0.78200
C275        C  0.36850719  0.62508155  0.23551278     0.81800
N276        N  0.32559724  0.60355213  0.23427511    -0.76500
C277        C  0.30527670  0.62261218  0.23428123     0.84300
N278        N  0.32801843  0.66337124  0.23525301    -0.76400
C279        C  0.37090339  0.68505116  0.23646865     0.84400
N280        N  0.39119384  0.66592514  0.23645066    -0.78200
C281        C  0.12527012  0.86217168  0.35359342     0.81800
N282        N  0.16818243  0.88370268  0.35482059    -0.76500
C283        C  0.18850236  0.86464302  0.35480772     0.84300
N284        N  0.16575926  0.82388293  0.35383989    -0.76400
C285        C  0.12287209  0.80220162  0.35263472     0.84400
N286        N  0.10258226  0.82132747  0.35265954    -0.78200
C287        C  0.13113720  0.84961001  0.10396008     0.81800
N288        N  0.17419744  0.87215769  0.10327235    -0.76500
C289        C  0.19503807  0.85364636  0.10442889     0.84300
N290        N  0.17273682  0.81242430  0.10692404    -0.76400
C291        C  0.12962916  0.78982653  0.10767663     0.84400
N292        N  0.10876361  0.80837162  0.10648150    -0.78200
O293        O  0.07669066  0.49982991  0.44102804    -0.78500
O294        O  0.46619536  0.55308153  0.41994639    -0.78600
O295        O  0.06096501  0.59705082  0.39037235    -0.78600
O296        O  0.45499131  0.96534647  0.48750665    -0.78500
O297        O  0.00405904  0.57289412  0.36395964    -0.78600
O298        O  0.02258832  0.99572751  0.47981261    -0.78600
O299        O  0.42326702  0.49929267  0.45345583    -0.78500
O300        O  0.09533872  0.56262865  0.42685233    -0.78600
C301        C  0.10255544  0.53788119  0.44118706     1.11100
C302        C  0.44030997  0.53646176  0.44404416     1.11000
C303        C  0.03767992  0.60294883  0.37288299     1.11200
C304        C  0.49084984  0.98399173  0.49805993     1.11000
O305        O  0.50213327  0.92359193  0.46187240    -0.78500
O306        O  0.47359817  0.48793947  0.36077915    -0.78600
O307        O  0.07375645  0.00632220  0.38149784    -0.78600
O308        O  0.40658984  0.95076062  0.40191449    -0.78500
O309        O  0.41814407  0.00759396  0.37440418    -0.78600
O310        O  0.01127676  0.95165019  0.39883105    -0.78600
O311        O  0.44449570  0.91382566  0.43979477    -0.78500
O312        O  0.03899373  0.53963858  0.34575388    -0.78600
Co313      Co  0.01376952  0.97302160  0.43956278     1.51500
Co314      Co  0.46859400  0.51842397  0.39212820     1.51700
Co315      Co  0.06323840  0.54918027  0.38851657     1.51600
Co316      Co  0.44133786  0.96375392  0.44191100     1.51500
O317        O  0.50688075  0.01407002  0.41888729    -1.40500
C318        C  0.46444764  0.89974616  0.45443502     1.11100
C319        C  0.50437566  0.00831913  0.33965394     1.11200
C320        C  0.04640756  0.96834471  0.38270466     1.11100
C321        C  0.39372981  0.96942466  0.38351565     1.11100
O322        O  0.07563397  0.47965899  0.21468922    -0.78500
O323        O  0.48250087  0.53560432  0.19028089    -0.78600
O324        O  0.04927759  0.57343116  0.14930840    -0.78600
O325        O  0.45478016  0.94761290  0.24335543    -0.78500
O326        O  0.99163446  0.56366611  0.12724186    -0.78600
O327        O  0.02017528  0.99931083  0.22832490    -0.78600
O328        O  0.42002070  0.48093356  0.20761492    -0.78500
O329        O  0.08718065  0.53649337  0.18718744    -0.78600
C330        C  0.10004603  0.51782906  0.20557941     1.11100
C331        C  0.44737147  0.51891049  0.20640914     1.11000
C332        C  0.02932163  0.58751150  0.13467617     1.11200
C333        C  0.48940011  0.97892961  0.24945060     1.11000
O334        O  0.48970928  0.91435537  0.22514160    -0.78500
O335        O  0.47117685  0.49153169  0.10929552    -0.78600
O336        O  0.07049649  0.98796267  0.13564396    -0.78600
O337        O  0.39842171  0.92462661  0.16226271    -0.78500
O338        O  0.41707100  0.98742646  0.14809073    -0.78600
O339        O  0.02756332  0.93416964  0.16914754    -0.78600
O340        O  0.43279739  0.89020025  0.19873589    -0.78500
O341        O  0.03877300  0.52190223  0.10159821    -0.78600
Co342      Co  0.02517225  0.96882730  0.19697078     1.51500
Co343      Co  0.48000146  0.51423474  0.14954703     1.51700
Co344      Co  0.05243260  0.52350050  0.14719209     1.51600
Co345      Co  0.43052830  0.93807291  0.20059538     1.51500
O346        O  0.48688447  0.97318356  0.17021617    -1.40500
C347        C  0.45608472  0.88430133  0.21622181     1.11100
C348        C  0.50290547  0.00326106  0.09104576     1.11200
C349        C  0.05345136  0.95079213  0.14505130     1.11100
C350        C  0.39120571  0.94937567  0.14792988     1.11100
C351        C  0.49920283  0.99775052  0.30797197    -0.11700
C352        C  0.49457672  0.98949783  0.28113278    -0.13200
C353        C  0.49512002  0.99082586  0.03078146    -0.11700
C354        C  0.49863144  0.99641512  0.05832722    -0.13200
C355        C  0.10607167  0.74620260  0.11220963    -0.16900
C356        C  0.08711180  0.70962567  0.11721298     0.07100
C357        C  0.06599400  0.66696158  0.12369943     0.09000
C358        C  0.04882844  0.63062040  0.12908085    -0.17800
C359        C  0.35278088  0.93384623  0.13235926    -0.16900
C360        C  0.31873281  0.91790673  0.12147922     0.07100
C361        C  0.27703036  0.89666783  0.11188969     0.09000
C362        C  0.24008142  0.87724221  0.10673540    -0.17800
C363        C  0.10936382  0.86915487  0.10566211    -0.16900
C364        C  0.09326774  0.88700981  0.11022012     0.07100
C365        C  0.07707502  0.90900557  0.11910401     0.09200
C366        C  0.06530436  0.92817439  0.12954450    -0.17800
C367        C  0.09901094  0.75869887  0.35289613    -0.16900
C368        C  0.08112025  0.72220356  0.35457917     0.07100
C369        C  0.06273012  0.67970024  0.35844786     0.09000
C370        C  0.04959473  0.64403578  0.36370883    -0.17800
C371        C  0.23380458  0.88720679  0.35720411    -0.16900
C372        C  0.27151557  0.90576473  0.36042161     0.07100
C373        C  0.31524002  0.92750465  0.36588149     0.09000
C374        C  0.35179930  0.94636798  0.37249781    -0.17800
C375        C  0.05780755  0.94362483  0.36967399    -0.16900
C376        C  0.07028560  0.92337850  0.36248354     0.07100
C377        C  0.08745587  0.90069602  0.35727607     0.09000
C378        C  0.10384447  0.88245222  0.35477133    -0.17800
C379        C  0.43597422  0.54363093  0.21944232    -0.16900
C380        C  0.42349587  0.56387669  0.22663369     0.07100
C381        C  0.40632388  0.58655799  0.23183994     0.09000
C382        C  0.38993393  0.60480111  0.23434133    -0.17800
C383        C  0.39476281  0.72855309  0.23621084    -0.16900
C384        C  0.41264988  0.76504777  0.23452867     0.07100
C385        C  0.43103544  0.80755025  0.23065897     0.09000
C386        C  0.44416845  0.84321389  0.22539651    -0.17800
C387        C  0.14197930  0.54088609  0.21659174    -0.16900
C388        C  0.17854069  0.55975091  0.22320310     0.07100
C389        C  0.22226578  0.58149166  0.22865936     0.09000
C390        C  0.25997672  0.60004949  0.23187789    -0.17800
C391        C  0.38441172  0.61811387  0.48342424    -0.16900
C392        C  0.40050618  0.60025794  0.47886629     0.07100
C393        C  0.41669349  0.57825654  0.46998556     0.09000
C394        C  0.42845910  0.55908245  0.45954840    -0.17800
C395        C  0.38768909  0.74105577  0.47691038    -0.16900
C396        C  0.40664879  0.77763233  0.47191040     0.07100
C397        C  0.42776959  0.82029645  0.46542251     0.09000
C398        C  0.44493835  0.85663737  0.46003669    -0.17800
C399        C  0.25368704  0.61001419  0.48236678    -0.16900
C400        C  0.21673657  0.59058887  0.47721630     0.07100
C401        C  0.17503185  0.56935163  0.46763213     0.09000
C402        C  0.14098140  0.55341236  0.45675586    -0.17800
C403        C  0.36263452  0.63765447  0.48513133     0.81800
N404        N  0.38500489  0.67889168  0.48262015    -0.76500
C405        C  0.36413503  0.69743259  0.48143425     0.84300
N406        N  0.32102798  0.67483251  0.48218604    -0.76400
C407        C  0.29873012  0.63361162  0.48467096     0.84400
N408        N  0.31957490  0.61510420  0.48581824    -0.78200
C409        C  0.36849163  0.62507790  0.73551426     0.81800
N410        N  0.32558145  0.60354939  0.73427695    -0.76500
C411        C  0.30526251  0.62261097  0.73428311     0.84300
N412        N  0.32800535  0.66336996  0.73525447    -0.76400
C413        C  0.37089053  0.68504894  0.73646982     0.84400
N414        N  0.39117938  0.66592126  0.73645184    -0.78200
C415        C  0.12527050  0.86216516  0.85359216     0.81800
N416        N  0.16818207  0.88369575  0.85482062    -0.76500
C417        C  0.18850237  0.86463608  0.85480985     0.84300
N418        N  0.16575883  0.82387552  0.85384296    -0.76400
C419        C  0.12287233  0.80219456  0.85263661     0.84400
N420        N  0.10258221  0.82132038  0.85265922    -0.78200
C421        C  0.13113693  0.84960978  0.60396191     0.81800
N422        N  0.17419692  0.87215617  0.60327273    -0.76500
C423        C  0.19503637  0.85364373  0.60443001     0.84300
N424        N  0.17273334  0.81242095  0.60692756    -0.76400
C425        C  0.12962608  0.78982480  0.60768169     0.84400
N426        N  0.10876156  0.80837083  0.60648570    -0.78200
O427        O  0.07669718  0.49982217  0.94102254    -0.78500
O428        O  0.46620023  0.55307315  0.91995578    -0.78600
O429        O  0.06096819  0.59704371  0.89037324    -0.78600
O430        O  0.45499227  0.96533587  0.98750961    -0.78500
O431        O  0.00405880  0.57288722  0.86396461    -0.78600
O432        O  0.02258983  0.99571823  0.97981485    -0.78600
O433        O  0.42327138  0.49928234  0.95346323    -0.78500
O434        O  0.09534511  0.56262107  0.92684831    -0.78600
C435        C  0.10256265  0.53787346  0.94118132     1.11100
C436        C  0.44031537  0.53645223  0.94405383     1.11000
C437        C  0.03768120  0.60294188  0.87288632     1.11200
C438        C  0.49085126  0.98398247  0.99806223     1.11000
O439        O  0.50213443  0.92358222  0.96187411    -0.78500
O440        O  0.47359530  0.48793248  0.86078279    -0.78600
O441        O  0.07375681  0.00631367  0.88149910    -0.78600
O442        O  0.40658951  0.95075027  0.90191790    -0.78500
O443        O  0.41814204  0.00758449  0.87441061    -0.78600
O444        O  0.01127760  0.95164132  0.89883314    -0.78600
O445        O  0.44449602  0.91381503  0.93979740    -0.78500
O446        O  0.03899078  0.53963150  0.84575379    -0.78600
Co447      Co  0.01377092  0.97301248  0.93956512     1.51500
Co448      Co  0.46859490  0.51841626  0.89213453     1.51700
Co449      Co  0.06324025  0.54917282  0.88851474     1.51600
Co450      Co  0.44133756  0.96374285  0.94191430     1.51500
O451        O  0.50688018  0.01406003  0.91889049    -1.40500
C452        C  0.46444908  0.89973606  0.95443684     1.11100
C453        C  0.50437340  0.00831242  0.83965658     1.11200
C454        C  0.04640788  0.96833644  0.88270572     1.11100
C455        C  0.39372853  0.96941473  0.88352070     1.11100
O456        O  0.07562069  0.47965596  0.71468905    -0.78500
O457        O  0.48248615  0.53559974  0.69028494    -0.78600
O458        O  0.04926235  0.57342732  0.64931135    -0.78600
O459        O  0.45477597  0.94761159  0.74335596    -0.78500
O460        O  0.99161869  0.56366383  0.62724674    -0.78600
O461        O  0.02017219  0.99930731  0.72832610    -0.78600
O462        O  0.42000587  0.48092851  0.70761759    -0.78500
O463        O  0.08716705  0.53649012  0.68718734    -0.78600
C464        C  0.10003234  0.51782607  0.70557953     1.11100
C465        C  0.44735614  0.51890548  0.70641247     1.11000
C466        C  0.02930609  0.58750826  0.63468059     1.11200
C467        C  0.48939608  0.97892804  0.74945143     1.11000
O468        O  0.48970594  0.91435463  0.72514221    -0.78500
O469        O  0.47116361  0.49153199  0.60929708    -0.78600
O470        O  0.07049368  0.98796088  0.63564492    -0.78600
O471        O  0.39841892  0.92462535  0.66226270    -0.78500
O472        O  0.41706740  0.98742490  0.64809080    -0.78600
O473        O  0.02756087  0.93416714  0.66914817    -0.78600
O474        O  0.43279435  0.89019953  0.69873620    -0.78500
O475        O  0.03875713  0.52190046  0.60159901    -0.78600
Co476      Co  0.02516924  0.96882405  0.69697181     1.51500
Co477      Co  0.47998764  0.51423247  0.64954997     1.51700
Co478      Co  0.05241774  0.52349743  0.64719265     1.51600
Co479      Co  0.43052473  0.93807180  0.70059566     1.51500
O480        O  0.48688101  0.97318282  0.67021653    -1.40500
C481        C  0.45608116  0.88430036  0.71622247     1.11100
C482        C  0.50290277  0.00326213  0.59104560     1.11200
C483        C  0.05344920  0.95079044  0.64505202     1.11100
C484        C  0.39120295  0.94937416  0.64792939     1.11100
C485        C  0.49919962  0.99774581  0.80797378    -0.11700
C486        C  0.49457287  0.98949477  0.78113427    -0.13200
C487        C  0.49511791  0.99083241  0.53077985    -0.11700
C488        C  0.49862930  0.99641909  0.55832628    -0.13200
C489        C  0.10606645  0.74620025  0.61221625    -0.16900
C490        C  0.08710410  0.70962364  0.61721992     0.07100
C491        C  0.06598222  0.66695868  0.62370588     0.09000
C492        C  0.04881411  0.63061752  0.62908627    -0.17800
C493        C  0.35277916  0.93384447  0.63235752    -0.16900
C494        C  0.31873150  0.91790430  0.62147695     0.07100
C495        C  0.27702900  0.89666456  0.61188786     0.09000
C496        C  0.24007967  0.87723854  0.60673470    -0.17800
C497        C  0.10936476  0.86915581  0.60566325    -0.16900
C498        C  0.09326882  0.88701089  0.61022077     0.07100
C499        C  0.07707505  0.90900582  0.61910451     0.09200
C500        C  0.06530326  0.92817364  0.62954506    -0.17800
C501        C  0.09901106  0.75869164  0.85289889    -0.16900
C502        C  0.08112059  0.72219620  0.85458278     0.07100
C503        C  0.06273084  0.67969315  0.85845189     0.09000
C504        C  0.04959579  0.64402867  0.86371285    -0.17800
C505        C  0.23380385  0.88719938  0.85720756    -0.16900
C506        C  0.27151479  0.90575678  0.86042588     0.07100
C507        C  0.31523882  0.92749560  0.86588644     0.09000
C508        C  0.35179802  0.94635837  0.87250297    -0.17800
C509        C  0.05780704  0.94361686  0.86967322    -0.16900
C510        C  0.07028487  0.92337104  0.86248148     0.07100
C511        C  0.08745537  0.90068887  0.85727311     0.09000
C512        C  0.10384428  0.88244547  0.85476860    -0.17800
C513        C  0.43595756  0.54362534  0.71944507    -0.16900
C514        C  0.42347833  0.56387072  0.72663577     0.07100
C515        C  0.40630628  0.58655217  0.73184166     0.09000
C516        C  0.38991686  0.60479582  0.73434289    -0.17800
C517        C  0.39475140  0.72855072  0.73621184    -0.16900
C518        C  0.41264072  0.76504592  0.73452984     0.07100
C519        C  0.43102893  0.80754859  0.73066032     0.09000
C520        C  0.44416420  0.84321305  0.72539770    -0.17800
C521        C  0.14196535  0.54088370  0.71659252    -0.16900
C522        C  0.17852632  0.55974934  0.72320438     0.07100
C523        C  0.22225156  0.58149123  0.72866114     0.09000
C524        C  0.25996220  0.60004911  0.73187982    -0.17800
C525        C  0.38441899  0.61810390  0.98343542    -0.16900
C526        C  0.40051391  0.60024748  0.97887975     0.07100
C527        C  0.41670099  0.57824603  0.96999942     0.09000
C528        C  0.42846593  0.55907199  0.95956084    -0.17800
C529        C  0.38769540  0.74104610  0.97690933    -0.16900
C530        C  0.40665440  0.77762263  0.97190935     0.07100
C531        C  0.42777354  0.82028662  0.96542219     0.09000
C532        C  0.44494098  0.85662733  0.96003738    -0.17800
C533        C  0.25369481  0.61000421  0.98236091    -0.16900
C534        C  0.21674516  0.59057936  0.97720885     0.07100
C535        C  0.17504063  0.56934276  0.96762402     0.09000
C536        C  0.14098997  0.55340420  0.95674825    -0.17800
C537        C  0.86263909  0.13764402  0.98513600     0.81800
N538        N  0.88500940  0.17888142  0.98262345    -0.76500
C539        C  0.86414084  0.19742316  0.98143314     0.84300
N540        N  0.82103350  0.17482375  0.98218176    -0.76400
C541        C  0.79873563  0.13360263  0.98466796     0.84400
N542        N  0.81957896  0.11509442  0.98581977    -0.78200
C543        C  0.86849919  0.12508123  0.23551376     0.81800
N544        N  0.82558900  0.10355248  0.23427559    -0.76500
C545        C  0.80526924  0.12261289  0.23428193     0.84300
N546        N  0.82801139  0.16337213  0.23525432    -0.76400
C547        C  0.87089646  0.18505121  0.23647031     0.84400
N548        N  0.89118597  0.16592467  0.23645216    -0.78200
C549        C  0.62526941  0.36217057  0.35359231     0.81800
N550        N  0.66818133  0.38370136  0.35481988    -0.76500
C551        C  0.68850198  0.36464230  0.35480580     0.84300
N552        N  0.66575892  0.32388241  0.35383638    -0.76400
C553        C  0.62287207  0.30220120  0.35263086     0.84400
N554        N  0.60258165  0.32132647  0.35265681    -0.78200
C555        C  0.63114796  0.34961235  0.10395660     0.81800
N556        N  0.67420787  0.37215867  0.10326850    -0.76500
C557        C  0.69504737  0.35364580  0.10442459     0.84300
N558        N  0.67274415  0.31242363  0.10691975    -0.76400
C559        C  0.62963684  0.28982729  0.10767265     0.84400
N560        N  0.60877257  0.30837399  0.10647793    -0.78200
O561        O  0.57669351  0.99983089  0.44102375    -0.78500
O562        O  0.96619379  0.05308004  0.41994867    -0.78600
O563        O  0.56096807  0.09705166  0.39036715    -0.78600
O564        O  0.95498645  0.46534239  0.48750910    -0.78500
O565        O  0.50406092  0.07289445  0.36395580    -0.78600
O566        O  0.52258774  0.49572935  0.47981453    -0.78600
O567        O  0.92326649  0.99929030  0.45345773    -0.78500
O568        O  0.59534237  0.06262975  0.42684702    -0.78600
C569        C  0.60255860  0.03788205  0.44118228     1.11100
C570        C  0.94030915  0.03645958  0.44404707     1.11000
C571        C  0.53768233  0.10294932  0.37287817     1.11200
C572        C  0.99084476  0.48398861  0.49806290     1.11000
O573        O  0.00213042  0.42359031  0.46187516    -0.78500
O574        O  0.97359535  0.98794010  0.36077867    -0.78600
O575        O  0.57375792  0.50632111  0.38150134    -0.78600
O576        O  0.90658794  0.45075889  0.40191580    -0.78500
O577        O  0.91814233  0.50759251  0.37440576    -0.78600
O578        O  0.51127767  0.45164973  0.39883440    -0.78600
O579        O  0.94449352  0.41382371  0.43979614    -0.78500
O580        O  0.53899370  0.03963719  0.34575022    -0.78600
Co581      Co  0.51376977  0.47302242  0.43956531     1.51500
Co582      Co  0.96859178  0.01842348  0.39212907     1.51700
Co583      Co  0.56324037  0.04918030  0.38851208     1.51600
Co584      Co  0.94133467  0.46375124  0.44191302     1.51500
O585        O  0.00687779  0.51406855  0.41889052    -1.40500
C586        C  0.96444570  0.39974452  0.45443679     1.11100
C587        C  0.00437639  0.50832049  0.33965654     1.11200
C588        C  0.54640856  0.46834364  0.38270823     1.11100
C589        C  0.89372815  0.46942298  0.38351671     1.11100
O590        O  0.57562769  0.97965607  0.21468628    -0.78500
O591        O  0.98249364  0.03560560  0.19028024    -0.78600
O592        O  0.54927207  0.07342963  0.14930774    -0.78600
O593        O  0.95478541  0.44761540  0.24335734    -0.78500
O594        O  0.49162888  0.06366627  0.12724243    -0.78600
O595        O  0.52018202  0.49930899  0.22832637    -0.78600
O596        O  0.92001365  0.98093475  0.20761463    -0.78500
O597        O  0.58717484  0.03649085  0.18718489    -0.78600
C598        C  0.60003987  0.01782636  0.20557710     1.11100
C599        C  0.94736435  0.01891167  0.20640880     1.11000
C600        C  0.52931657  0.08751083  0.13467610     1.11200
C601        C  0.98940543  0.47893228  0.24945264     1.11000
O602        O  0.98971525  0.41435749  0.22514471    -0.78500
O603        O  0.97116861  0.99153283  0.10929476    -0.78600
O604        O  0.57050496  0.48796237  0.13564576    -0.78600
O605        O  0.89842828  0.42462721  0.16226413    -0.78500
O606        O  0.91707709  0.48742659  0.14809082    -0.78600
O607        O  0.52757123  0.43416865  0.16914857    -0.78600
O608        O  0.93280376  0.39020234  0.19873849    -0.78500
O609        O  0.53876585  0.02190152  0.10159636    -0.78600
Co610      Co  0.52517946  0.46882587  0.19697202     1.51500
Co611      Co  0.97999373  0.01423596  0.14954632     1.51700
Co612      Co  0.55242617  0.02349875  0.14718995     1.51600
Co613      Co  0.93053436  0.43807473  0.20059699     1.51500
O614        O  0.98689086  0.47318498  0.17021812    -1.40500
C615        C  0.95609050  0.38430332  0.21622518     1.11100
C616        C  0.00291265  0.50326081  0.09104730     1.11200
C617        C  0.55346008  0.45079192  0.14505269     1.11100
C618        C  0.89121228  0.44937567  0.14793017     1.11100
C619        C  0.99920556  0.49775291  0.30797420    -0.11700
C620        C  0.99458097  0.48950079  0.28113478    -0.13200
C621        C  0.99512719  0.49082549  0.03078290    -0.11700
C622        C  0.99863939  0.49641478  0.05832863    -0.13200
C623        C  0.60607721  0.24620325  0.11220616    -0.16900
C624        C  0.58711468  0.20962611  0.11721044     0.07100
C625        C  0.56599338  0.16696158  0.12369804     0.09000
C626        C  0.54882518  0.13062014  0.12908027    -0.17800
C627        C  0.85278842  0.43384549  0.13235832    -0.16900
C628        C  0.81874090  0.41790509  0.12147712     0.07100
C629        C  0.77703927  0.39666581  0.11188637     0.09000
C630        C  0.74009029  0.37724017  0.10673137    -0.17800
C631        C  0.60937581  0.36915854  0.10565991    -0.16900
C632        C  0.59327985  0.38701310  0.11021924     0.07100
C633        C  0.57708592  0.40900731  0.11910480     0.09200
C634        C  0.56531419  0.42817493  0.12954588    -0.17800
C635        C  0.59901125  0.25869868  0.35289090    -0.16900
C636        C  0.58112118  0.22220351  0.35457344     0.07100
C637        C  0.56273191  0.17970040  0.35844198     0.09000
C638        C  0.54959724  0.14403620  0.36370336    -0.17800
C639        C  0.73380379  0.38720585  0.35720272    -0.16900
C640        C  0.77151493  0.40576370  0.36042073     0.07100
C641        C  0.81523895  0.42750329  0.36588126     0.09000
C642        C  0.85179815  0.44636648  0.37249826    -0.17800
C643        C  0.55780760  0.44362336  0.36967740    -0.16900
C644        C  0.57028500  0.42337662  0.36248618     0.07100
C645        C  0.58745458  0.40069409  0.35727748     0.09000
C646        C  0.60384327  0.38245043  0.35477157    -0.17800
C647        C  0.93596712  0.04363194  0.21944220    -0.16900
C648        C  0.92348809  0.06387708  0.22663382     0.07100
C649        C  0.90631554  0.08655765  0.23184044     0.09000
C650        C  0.88992524  0.10480056  0.23434204    -0.17800
C651        C  0.89475668  0.22855305  0.23621342    -0.16900
C652        C  0.91264654  0.26504802  0.23453220     0.07100
C653        C  0.93103646  0.30755113  0.23066322     0.09000
C654        C  0.94417271  0.34321570  0.22540082    -0.17800
C655        C  0.64197218  0.04088330  0.21659032    -0.16900
C656        C  0.67853366  0.05974944  0.22320249     0.07100
C657        C  0.72225827  0.08149179  0.22865926     0.09000
C658        C  0.75996935  0.10005082  0.23187826    -0.17800
C659        C  0.88441356  0.11811268  0.48342827    -0.16900
C660        C  0.90050814  0.10025623  0.47887124     0.07100
C661        C  0.91669444  0.07825430  0.46999077     0.09000
C662        C  0.92845929  0.05907970  0.45955284    -0.17800
C663        C  0.88768952  0.24105426  0.47690949    -0.16900
C664        C  0.90664858  0.27763067  0.47190967     0.07100
C665        C  0.92776884  0.32029491  0.46542248     0.09000
C666        C  0.94493702  0.35663562  0.46003756    -0.17800
C667        C  0.75368856  0.11001193  0.48236508    -0.16900
C668        C  0.71673851  0.09058726  0.47721364     0.07100
C669        C  0.67503429  0.06935128  0.46762838     0.09000
C670        C  0.64098452  0.05341314  0.45675126    -0.17800
C671        C  0.86263624  0.13765306  0.48513357     0.81800
N672        N  0.88500602  0.17889036  0.48262149    -0.76500
C673        C  0.86413595  0.19743100  0.48143376     0.84300
N674        N  0.82102887  0.17483060  0.48218463    -0.76400
C675        C  0.79873154  0.13360962  0.48467032     0.84400
N676        N  0.81957640  0.11510250  0.48581947    -0.78200
C677        C  0.86849536  0.12507896  0.73551365     0.81800
N678        N  0.82558511  0.10355017  0.73427599    -0.76500
C679        C  0.80526571  0.12261103  0.73428230     0.84300
N680        N  0.82800812  0.16337018  0.73525421    -0.76400
C681        C  0.87089319  0.18504926  0.73646993     0.84400
N682        N  0.89118254  0.16592229  0.73645167    -0.78200
C683        C  0.62527024  0.36216274  0.85359572     0.81800
N684        N  0.66818233  0.38369424  0.85482475    -0.76500
C685        C  0.68850266  0.36463466  0.85481394     0.84300
N686        N  0.66576059  0.32387493  0.85384635    -0.76400
C687        C  0.62287343  0.30219296  0.85263935     0.84400
N688        N  0.60258328  0.32131866  0.85266208    -0.78200
C689        C  0.63113437  0.34960955  0.60395892     0.81800
N690        N  0.67419437  0.37215676  0.60326985    -0.76500
C691        C  0.69503490  0.35364513  0.60442552     0.84300
N692        N  0.67273263  0.31242278  0.60692135    -0.76400
C693        C  0.62962545  0.28982566  0.60767525     0.84400
N694        N  0.60875989  0.30837098  0.60648095    -0.78200
O695        O  0.57669390  0.99982069  0.94102446    -0.78500
O696        O  0.96619560  0.05307081  0.91995396    -0.78600
O697        O  0.56096711  0.09704203  0.89037216    -0.78600
O698        O  0.95499743  0.46533596  0.98751180    -0.78500
O699        O  0.50405900  0.07288610  0.86396200    -0.78600
O700        O  0.52259448  0.49571853  0.97981442    -0.78600
O701        O  0.92326622  0.99927919  0.95346054    -0.78500
O702        O  0.59534226  0.06261952  0.92684905    -0.78600
C703        C  0.60255963  0.03787211  0.94118295     1.11100
C704        C  0.94030980  0.03644912  0.94405150     1.11000
C705        C  0.53768089  0.10294044  0.87288437     1.11200
C706        C  0.99085699  0.48398254  0.99806349     1.11000
O707        O  0.00213805  0.42358289  0.96187248    -0.78500
O708        O  0.97359653  0.98793324  0.86078113    -0.78600
O709        O  0.57375640  0.50631163  0.88149789    -0.78600
O710        O  0.90659049  0.45075193  0.90192173    -0.78500
O711        O  0.91814252  0.50758619  0.87441505    -0.78600
O712        O  0.51127696  0.45164020  0.89883279    -0.78600
O713        O  0.94449872  0.41381626  0.93979789    -0.78500
O714        O  0.53899174  0.03962997  0.84575310    -0.78600
Co715      Co  0.51377289  0.47301215  0.93956479     1.51500
Co716      Co  0.96859329  0.01841553  0.89213278     1.51700
Co717      Co  0.56323915  0.04917114  0.88851474     1.51600
Co718      Co  0.94134090  0.46374411  0.94191693     1.51500
O719        O  0.00688254  0.51406137  0.91889183    -1.40500
C720        C  0.96445211  0.39973698  0.95443610     1.11100
C721        C  0.00437195  0.50831362  0.83965797     1.11200
C722        C  0.54640670  0.46833424  0.88270506     1.11100
C723        C  0.89372928  0.46941642  0.88352496     1.11100
O724        O  0.57562427  0.97965608  0.71468710    -0.78500
O725        O  0.98248919  0.03560118  0.69028213    -0.78600
O726        O  0.54926776  0.07342903  0.64930856    -0.78600
O727        O  0.95477253  0.44761037  0.74335837    -0.78500
O728        O  0.49162457  0.06366523  0.62724303    -0.78600
O729        O  0.52016847  0.49930546  0.72832742    -0.78600
O730        O  0.92000925  0.98093016  0.70761588    -0.78500
O731        O  0.58717100  0.03649063  0.68718565    -0.78600
C732        C  0.60003614  0.01782626  0.70557789     1.11100
C733        C  0.94735942  0.01890697  0.70641014     1.11000
C734        C  0.52931177  0.08750975  0.63467699     1.11200
C735        C  0.98939237  0.47892737  0.74945352     1.11000
O736        O  0.98970281  0.41435414  0.72514423    -0.78500
O737        O  0.97116589  0.99153040  0.60929566    -0.78600
O738        O  0.57049085  0.48796029  0.63564585    -0.78600
O739        O  0.89841403  0.42462344  0.66226564    -0.78500
O740        O  0.91706202  0.48742297  0.64809429    -0.78600
O741        O  0.52755839  0.43416635  0.66914898    -0.78600
O742        O  0.93279093  0.39019832  0.69873850    -0.78500
O743        O  0.53876290  0.02190206  0.60159665    -0.78600
Co744      Co  0.52516626  0.46882291  0.69697283     1.51500
Co745      Co  0.97999022  0.01423244  0.64954783     1.51700
Co746      Co  0.55242256  0.02349856  0.64719055     1.51600
Co747      Co  0.93052048  0.43807009  0.70059835     1.51500
O748        O  0.98687648  0.47318155  0.67021891    -1.40500
C749        C  0.95607851  0.38429980  0.71622449     1.11100
C750        C  0.00289686  0.50326064  0.59104831     1.11200
C751        C  0.55344661  0.45078971  0.64505277     1.11100
C752        C  0.89119782  0.44937209  0.64793251     1.11100
C753        C  0.99919701  0.49774644  0.80797544    -0.11700
C754        C  0.99456941  0.48949465  0.78113606    -0.13200
C755        C  0.99511169  0.49082937  0.53078290    -0.11700
C756        C  0.99862283  0.49641658  0.55832917    -0.13200
C757        C  0.60606701  0.24620133  0.61220907    -0.16900
C758        C  0.58710634  0.20962485  0.61721318     0.07100
C759        C  0.56598661  0.16696007  0.62370019     0.09000
C760        C  0.54881978  0.13061924  0.62908176    -0.17800
C761        C  0.85277476  0.43384276  0.63235987    -0.16900
C762        C  0.81872789  0.41790367  0.62147781     0.07100
C763        C  0.77702677  0.39666558  0.61188638     0.09000
C764        C  0.74007783  0.37724025  0.60673147    -0.17800
C765        C  0.60936142  0.36915482  0.60566195    -0.16900
C766        C  0.59326541  0.38700971  0.61022064     0.07100
C767        C  0.57707225  0.40900481  0.61910504     0.09200
C768        C  0.56530083  0.42817315  0.62954573    -0.17800
C769        C  0.59901333  0.25869079  0.85290051    -0.16900
C770        C  0.58112259  0.22219531  0.85458318     0.07100
C771        C  0.56273208  0.17969222  0.85845086     0.09000
C772        C  0.54959618  0.14402750  0.86371101    -0.17800
C773        C  0.73380469  0.38719911  0.85721189    -0.16900
C774        C  0.77151531  0.40575700  0.86043020     0.07100
C775        C  0.81523961  0.42749678  0.86589079     0.09000
C776        C  0.85179864  0.44635995  0.87250732    -0.17800
C777        C  0.55780523  0.44361388  0.86967346    -0.16900
C778        C  0.57028325  0.42336772  0.86248257     0.07100
C779        C  0.58745425  0.40068585  0.85727540     0.09000
C780        C  0.60384389  0.38244283  0.85477161    -0.17800
C781        C  0.93596140  0.04362731  0.71944287    -0.16900
C782        C  0.92348256  0.06387266  0.72663391     0.07100
C783        C  0.90631042  0.08655404  0.73184031     0.09000
C784        C  0.88992100  0.10479745  0.73434190    -0.17800
C785        C  0.89475350  0.22855113  0.73621241    -0.16900
C786        C  0.91264180  0.26504600  0.73453066     0.07100
C787        C  0.93102886  0.30754868  0.73066155     0.09000
C788        C  0.94416261  0.34321256  0.72539931    -0.17800
C789        C  0.64196876  0.04088348  0.71659093    -0.16900
C790        C  0.67852996  0.05974911  0.72320303     0.07100
C791        C  0.72225483  0.08149098  0.72865989     0.09000
C792        C  0.75996563  0.10004909  0.73187882    -0.17800
C793        C  0.88441503  0.11810240  0.98343302    -0.16900
C794        C  0.90050890  0.10024496  0.97887702     0.07100
C795        C  0.91669464  0.07824256  0.96999676     0.09000
C796        C  0.92845936  0.05906811  0.95955829    -0.17800
C797        C  0.88769522  0.24104655  0.97690844    -0.16900
C798        C  0.90665503  0.27762305  0.97190851     0.07100
C799        C  0.92777550  0.32028736  0.96542132     0.09000
C800        C  0.94494361  0.35662811  0.96003646    -0.17800
C801        C  0.75369265  0.11000570  0.98236111    -0.16900
C802        C  0.71674258  0.09058035  0.97720958     0.07100
C803        C  0.67503795  0.06934284  0.96762551     0.09000
C804        C  0.64098665  0.05340323  0.95674992    -0.17800
C805        C  0.86264333  0.63764540  0.98513645     0.81800
N806        N  0.88501287  0.67888279  0.98262273    -0.76500
C807        C  0.86414319  0.69742368  0.98143040     0.84300
N808        N  0.82103604  0.67482332  0.98217832    -0.76400
C809        C  0.79873912  0.63360233  0.98466555     0.84400
N810        N  0.81958348  0.61509485  0.98581931    -0.78200
C811        C  0.86850747  0.62508336  0.23551321     0.81800
N812        N  0.82559726  0.60355373  0.23427524    -0.76500
C813        C  0.80527670  0.62261339  0.23428095     0.84300
N814        N  0.82801798  0.66337271  0.23525259    -0.76400
C815        C  0.87090307  0.68505272  0.23646842     0.84400
N816        N  0.89119358  0.66592703  0.23645083    -0.78200
C817        C  0.62527028  0.86217129  0.35358881     0.81800
N818        N  0.66818208  0.88370199  0.35481669    -0.76500
C819        C  0.68850271  0.86464279  0.35480328     0.84300
N820        N  0.66575949  0.82388276  0.35383440    -0.76400
C821        C  0.62287271  0.80220158  0.35262859     0.84400
N822        N  0.60258241  0.82132709  0.35265388    -0.78200
C823        C  0.63113645  0.84960861  0.10395713     0.81800
N824        N  0.67419681  0.87215642  0.10326954    -0.76500
C825        C  0.69503757  0.85364539  0.10442647     0.84300
N826        N  0.67273648  0.81242314  0.10692197    -0.76400
C827        C  0.62962892  0.78982534  0.10767440     0.84400
N828        N  0.60876311  0.80837012  0.10647890    -0.78200
O829        O  0.57669326  0.49983223  0.44102670    -0.78500
O830        O  0.96619228  0.55307866  0.41994952    -0.78600
O831        O  0.56096768  0.59705211  0.39036845    -0.78600
O832        O  0.95499052  0.96534421  0.48750747    -0.78500
O833        O  0.50406105  0.57289439  0.36395638    -0.78600
O834        O  0.52258892  0.99572793  0.47981231    -0.78600
O835        O  0.92326380  0.49928864  0.45345794    -0.78500
O836        O  0.59534175  0.56263088  0.42684945    -0.78600
C837        C  0.60255834  0.53788366  0.44118483     1.11100
C838        C  0.94030697  0.53645819  0.44404723     1.11000
C839        C  0.53768223  0.60294951  0.37287888     1.11200
C840        C  0.99084935  0.98399037  0.49806063     1.11000
O841        O  0.00213357  0.92359206  0.46187146    -0.78500
O842        O  0.97359699  0.48793986  0.36077998    -0.78600
O843        O  0.57375744  0.00632054  0.38149830    -0.78600
O844        O  0.90658808  0.95075975  0.40191562    -0.78500
O845        O  0.91814165  0.00759322  0.37440600    -0.78600
O846        O  0.51127733  0.95164901  0.39883165    -0.78600
O847        O  0.94449549  0.91382513  0.43979425    -0.78500
O848        O  0.53899490  0.53963751  0.34575195    -0.78600
Co849      Co  0.51377008  0.97302136  0.43956288     1.51500
Co850      Co  0.96859180  0.51842268  0.39213012     1.51700
Co851      Co  0.56324050  0.54918092  0.38851419     1.51600
Co852      Co  0.94133674  0.96375265  0.44191187     1.51500
O853        O  0.00687918  0.01406989  0.41888807    -1.40500
C854        C  0.96444839  0.89974618  0.45443395     1.11100
C855        C  0.00437375  0.00832041  0.33965438     1.11200
C856        C  0.54640809  0.96834316  0.38270514     1.11100
C857        C  0.89372781  0.96942370  0.38351679     1.11100
O858        O  0.57563389  0.47965679  0.21468832    -0.78500
O859        O  0.98250073  0.53560631  0.19028065    -0.78600
O860        O  0.54927785  0.57342962  0.14930815    -0.78600
O861        O  0.95477902  0.94761453  0.24335587    -0.78500
O862        O  0.49163447  0.56366497  0.12724237    -0.78600
O863        O  0.52017655  0.99930903  0.22832464    -0.78600
O864        O  0.92002066  0.48093557  0.20761502    -0.78500
O865        O  0.58718058  0.53649130  0.18718677    -0.78600
C866        C  0.60004595  0.51782699  0.20557870     1.11100
C867        C  0.94737141  0.51891257  0.20640912     1.11000
C868        C  0.52932165  0.58751000  0.13467627     1.11200
C869        C  0.98939901  0.97893164  0.24945087     1.11000
O870        O  0.98970830  0.91435700  0.22514262    -0.78500
O871        O  0.97117712  0.49153248  0.10929579    -0.78600
O872        O  0.57049763  0.98796198  0.13564323    -0.78600
O873        O  0.89842034  0.92462704  0.16226327    -0.78500
O874        O  0.91706938  0.98742670  0.14809065    -0.78600
O875        O  0.52756425  0.93416852  0.16914635    -0.78600
O876        O  0.93279646  0.89020144  0.19873680    -0.78500
O877        O  0.53877266  0.52190078  0.10159767    -0.78600
Co878      Co  0.52517343  0.96882592  0.19697011     1.51500
Co879      Co  0.98000144  0.51423614  0.14954709     1.51700
Co880      Co  0.55243251  0.52349877  0.14719144     1.51600
Co881      Co  0.93052713  0.93807397  0.20059587     1.51500
O882        O  0.98688318  0.97318436  0.17021651    -1.40500
C883        C  0.95608376  0.88430264  0.21622283     1.11100
C884        C  0.00290382  0.00326052  0.09104591     1.11200
C885        C  0.55345234  0.95079130  0.14505010     1.11100
C886        C  0.89120411  0.94937557  0.14793008     1.11100
C887        C  0.99920104  0.99775237  0.30797228    -0.11700
C888        C  0.99457536  0.98950001  0.28113296    -0.13200
C889        C  0.99511877  0.99082465  0.03078171    -0.11700
C890        C  0.99863003  0.99641411  0.05832763    -0.13200
C891        C  0.60607150  0.74620108  0.11220796    -0.16900
C892        C  0.58711208  0.70962449  0.11721187     0.07100
C893        C  0.56599446  0.66696009  0.12369901     0.09000
C894        C  0.54882900  0.63061926  0.12908079    -0.17800
C895        C  0.85277958  0.93384593  0.13235908    -0.16900
C896        C  0.81873174  0.91790632  0.12147854     0.07100
C897        C  0.77702965  0.89666721  0.11188832     0.09000
C898        C  0.74008091  0.87724136  0.10673341    -0.17800
C899        C  0.60936303  0.86915331  0.10565921    -0.16900
C900        C  0.59326723  0.88700860  0.11021742     0.07100
C901        C  0.57707500  0.90900447  0.11910189     0.09200
C902        C  0.56530504  0.92817370  0.12954283    -0.17800
C903        C  0.59901174  0.75869900  0.35288929    -0.16900
C904        C  0.58112145  0.72220363  0.35457254     0.07100
C905        C  0.56273193  0.67970054  0.35844171     0.09000
C906        C  0.54959700  0.64403619  0.36370357    -0.17800
C907        C  0.73380421  0.88720618  0.35720081    -0.16900
C908        C  0.77151531  0.90576404  0.36041948     0.07100
C909        C  0.81523892  0.92750354  0.36588075     0.09000
C910        C  0.85179801  0.94636697  0.37249824    -0.17800
C911        C  0.55780721  0.94362298  0.36967400    -0.16900
C912        C  0.57028513  0.92337685  0.36248253     0.07100
C913        C  0.58745520  0.90069468  0.35727357     0.09000
C914        C  0.60384413  0.88245130  0.35476763    -0.17800
C915        C  0.93597441  0.54363306  0.21944241    -0.16900
C916        C  0.92349617  0.56387889  0.22663404     0.07100
C917        C  0.90632428  0.58656005  0.23184061     0.09000
C918        C  0.88993426  0.60480328  0.23434199    -0.17800
C919        C  0.89476217  0.72855473  0.23621065    -0.16900
C920        C  0.91264937  0.76504942  0.23452875     0.07100
C921        C  0.93103502  0.80755177  0.23065956     0.09000
C922        C  0.94416798  0.84321554  0.22539738    -0.17800
C923        C  0.64197907  0.54088405  0.21659113    -0.16900
C924        C  0.67854050  0.55974965  0.22320259     0.07100
C925        C  0.72226568  0.58149172  0.22865881     0.09000
C926        C  0.75997654  0.60005039  0.23187746    -0.17800
C927        C  0.88441239  0.61811224  0.48342888    -0.16900
C928        C  0.90050609  0.60025492  0.47887161     0.07100
C929        C  0.91669183  0.57825270  0.46999082     0.09000
C930        C  0.92845657  0.55907810  0.45955279    -0.17800
C931        C  0.88769271  0.74105621  0.47690864    -0.16900
C932        C  0.90665203  0.77763225  0.47190805     0.07100
C933        C  0.92777225  0.82029675  0.46542001     0.09000
C934        C  0.94493995  0.85663718  0.46003468    -0.17800
C935        C  0.75368946  0.61001518  0.48236566    -0.16900
C936        C  0.71673958  0.59059064  0.47721447     0.07100
C937        C  0.67503492  0.56935408  0.46762975     0.09000
C938        C  0.64098471  0.55341524  0.45675330    -0.17800
C939        C  0.86263646  0.63765339  0.48513434     0.81800
N940        N  0.88500697  0.67889121  0.48262179    -0.76500
C941        C  0.86413823  0.69743236  0.48143384     0.84300
N942        N  0.82103087  0.67483328  0.48218477    -0.76400
C943        C  0.79873283  0.63361183  0.48467100     0.84400
N944        N  0.81957625  0.61510402  0.48582034    -0.78200
C945        C  0.86849040  0.62507655  0.73551997     0.81800
N946        N  0.82558006  0.60354754  0.73428268    -0.76500
C947        C  0.80526053  0.62260847  0.73428896     0.84300
N948        N  0.82800298  0.66336755  0.73526039    -0.76400
C949        C  0.87088824  0.68504714  0.73647564     0.84400
N950        N  0.89117755  0.66591981  0.73645755    -0.78200
C951        C  0.62527018  0.86216364  0.85359202     0.81800
N952        N  0.66818194  0.88369524  0.85482040    -0.76500
C953        C  0.68850310  0.86463632  0.85480867     0.84300
N954        N  0.66576066  0.82387628  0.85384088    -0.76400
C955        C  0.62287394  0.80219426  0.85263455     0.84400
N956        N  0.60258301  0.82131944  0.85265810    -0.78200
C957        C  0.63113636  0.84960918  0.60396186     0.81800
N958        N  0.67419648  0.87215539  0.60327233    -0.76500
C959        C  0.69503566  0.85364263  0.60442944     0.84300
N960        N  0.67273235  0.81241995  0.60692701    -0.76400
C961        C  0.62962499  0.78982382  0.60768134     0.84400
N962        N  0.60876079  0.80837028  0.60648562    -0.78200
O963        O  0.57669665  0.49982103  0.94102300    -0.78500
O964        O  0.96619869  0.55307206  0.91995706    -0.78600
O965        O  0.56096977  0.59704326  0.89037195    -0.78600
O966        O  0.95499186  0.96533468  0.98750955    -0.78500
O967        O  0.50406057  0.57288718  0.86396317    -0.78600
O968        O  0.52259003  0.99571818  0.97981450    -0.78600
O969        O  0.92327102  0.49928119  0.95346490    -0.78500
O970        O  0.59534549  0.56262012  0.92684793    -0.78600
C971        C  0.60256251  0.53787213  0.94118140     1.11100
C972        C  0.94031464  0.53645102  0.94405558     1.11000
C973        C  0.53768334  0.60294176  0.87288461     1.11200
C974        C  0.99085071  0.98398169  0.99806254     1.11000
O975        O  0.00213517  0.92358286  0.96187349    -0.78500
O976        O  0.97359493  0.48793312  0.86078308    -0.78600
O977        O  0.57375538  0.00631128  0.88149896    -0.78600
O978        O  0.90659003  0.95075100  0.90191754    -0.78500
O979        O  0.91814262  0.00758538  0.87441065    -0.78600
O980        O  0.51127606  0.95163940  0.89883348    -0.78600
O981        O  0.94449711  0.91381576  0.93979622    -0.78500
O982        O  0.53899151  0.53962993  0.84575333    -0.78600
Co983      Co  0.51377027  0.97301157  0.93956515     1.51500
Co984      Co  0.96859396  0.51841597  0.89213540     1.51700
Co985      Co  0.56324085  0.54917166  0.88851430     1.51600
Co986      Co  0.94133797  0.96374297  0.94191410     1.51500
O987        O  0.00688055  0.01406087  0.91889085    -1.40500
C988        C  0.96445014  0.89973673  0.95443567     1.11100
C989        C  0.00437446  0.00831421  0.83965677     1.11200
C990        C  0.54640600  0.96833387  0.88270603     1.11100
C991        C  0.89372920  0.96941566  0.88352040     1.11100
O992        O  0.57562028  0.47965320  0.71468955    -0.78500
O993        O  0.98248538  0.53560121  0.69028467    -0.78600
O994        O  0.54926369  0.57342638  0.64931237    -0.78600
O995        O  0.95477600  0.94761111  0.74335726    -0.78500
O996        O  0.49162047  0.56366343  0.62724722    -0.78600
O997        O  0.52017232  0.99930802  0.72832554    -0.78600
O998        O  0.92000554  0.48092968  0.70761812    -0.78500
O999        O  0.58716762  0.53648801  0.68718820    -0.78600
C1000       C  0.60003227  0.51782347  0.70558068     1.11100
C1001       C  0.94735573  0.51890670  0.70641289     1.11000
C1002       C  0.52930783  0.58750785  0.63468157     1.11200
C1003       C  0.98939622  0.97892783  0.74945221     1.11000
O1004       O  0.98970582  0.91435365  0.72514382    -0.78500
O1005       O  0.97116154  0.49153183  0.60929754    -0.78600
O1006       O  0.57049471  0.98796231  0.63564394    -0.78600
O1007       O  0.89841775  0.92462277  0.66226449    -0.78500
O1008       O  0.91706583  0.98742211  0.64809186    -0.78600
O1009       O  0.52756166  0.93416865  0.66914704    -0.78600
O1010       O  0.93279393  0.89019802  0.69873815    -0.78500
O1011       O  0.53875933  0.52190094  0.60159927    -0.78600
Co1012     Co  0.52516988  0.96882542  0.69697083     1.51500
Co1013     Co  0.97998635  0.51423325  0.64954999     1.51700
Co1014     Co  0.55241884  0.52349642  0.64719319     1.51600
Co1015     Co  0.93052405  0.93807016  0.70059714     1.51500
O1016       O  0.98688003  0.97318099  0.67021764    -1.40500
C1017       C  0.95608080  0.88429903  0.71622473     1.11100
C1018       C  0.00290151  0.00325997  0.59104646     1.11200
C1019       C  0.55345008  0.95079191  0.64505096     1.11100
C1020       C  0.89120144  0.94937116  0.64793085     1.11100
C1021       C  0.99920089  0.99774743  0.80797405    -0.11700
C1022       C  0.99457369  0.98949556  0.78113473    -0.13200
C1023       C  0.99511732  0.99083064  0.53078051    -0.11700
C1024       C  0.99862830  0.99641694  0.55832726    -0.13200
C1025       C  0.60606543  0.74619957  0.61221643    -0.16900
C1026       C  0.58710345  0.70962261  0.61722064     0.07100
C1027       C  0.56598294  0.66695824  0.62370714     0.09000
C1028       C  0.54881548  0.63061677  0.62908782    -0.17800
C1029       C  0.85277775  0.93384105  0.63235890    -0.16900
C1030       C  0.81873024  0.91790119  0.62147793     0.07100
C1031       C  0.77702821  0.89666243  0.61188806     0.09000
C1032       C  0.74007893  0.87723707  0.60673439    -0.17800
C1033       C  0.60936461  0.86915565  0.60566337    -0.16900
C1034       C  0.59326890  0.88701104  0.61022079     0.07100
C1035       C  0.57707553  0.90900649  0.61910418     0.09200
C1036       C  0.56530422  0.92817492  0.62954428    -0.17800
C1037       C  0.59901375  0.75869180  0.85289612    -0.16900
C1038       C  0.58112383  0.72219637  0.85457973     0.07100
C1039       C  0.56273426  0.67969339  0.85844897     0.09000
C1040       C  0.54959881  0.64402874  0.86371047    -0.17800
C1041       C  0.73380479  0.88720060  0.85720641    -0.16900
C1042       C  0.77151557  0.90575808  0.86042483     0.07100
C1043       C  0.81523975  0.92749690  0.86588549     0.09000
C1044       C  0.85179874  0.94635939  0.87250237    -0.17800
C1045       C  0.55780490  0.94361384  0.86967394    -0.16900
C1046       C  0.57028267  0.92336790  0.86248233     0.07100
C1047       C  0.58745357  0.90068596  0.85727393     0.09000
C1048       C  0.60384310  0.88244325  0.85476913    -0.17800
C1049       C  0.93595753  0.54362625  0.71944651    -0.16900
C1050       C  0.92347832  0.56387125  0.72663851     0.07100
C1051       C  0.90630596  0.58655198  0.73184572     0.09000
C1052       C  0.88991614  0.60479523  0.73434791    -0.17800
C1053       C  0.89474861  0.72854869  0.73621739    -0.16900
C1054       C  0.91263833  0.76504441  0.73453475     0.07100
C1055       C  0.93102744  0.80754694  0.73066435     0.09000
C1056       C  0.94416340  0.84321191  0.72540088    -0.17800
C1057       C  0.64196445  0.54088053  0.71659473    -0.16900
C1058       C  0.67852509  0.55974601  0.72320784     0.07100
C1059       C  0.72224972  0.58148793  0.72866578     0.09000
C1060       C  0.75996045  0.60004630  0.73188526    -0.17800
C1061       C  0.88442063  0.61810461  0.98343558    -0.16900
C1062       C  0.90051544  0.60024778  0.97888112     0.07100
C1063       C  0.91670164  0.57824538  0.97000168     0.09000
C1064       C  0.92846586  0.55907075  0.95956314    -0.17800
C1065       C  0.88769666  0.74104685  0.97690537    -0.16900
C1066       C  0.90665566  0.77762330  0.97190566     0.07100
C1067       C  0.92777504  0.82028736  0.96541942     0.09000
C1068       C  0.94494247  0.85662812  0.96003536    -0.17800
C1069       C  0.75369611  0.61000419  0.98235839    -0.16900
C1070       C  0.71674631  0.59057896  0.97720702     0.07100
C1071       C  0.67504122  0.56934185  0.96762307     0.09000
C1072       C  0.64099015  0.55340299  0.95674805    -0.17800
loop_ 
_geom_bond_atom_site_label_1 
_geom_bond_atom_site_label_2 
_geom_bond_distance 
_geom_bond_site_symmetry_2 
_ccdc_geom_bond_type 
C1            N2   1.357       .  A
C1            N6   1.355       .  A
C1          C257   1.431       .  S
N2            C3   1.357       .  A
C3            N4   1.357       .  A
C3          C261   1.432       .  S
N4            C5   1.356       .  A
C5            N6   1.355       .  A
C5          C265   1.432       .  S
C7            N8   1.359       .  A
C7           N12   1.360       .  A
C7          C114   1.443       .  S
N8            C9   1.358       .  A
C9           N10   1.358       .  A
C9          C122   1.442       .  S
N10          C11   1.358       .  A
C11          N12   1.360       .  A
C11         C115   1.441       .  S
C13          N14   1.359       .  A
C13          N18   1.360       .  A
C13         C110   1.443       .  S
N14          C15   1.358       .  A
C15          N16   1.358       .  A
C15         C103   1.442       .  S
N16          C17   1.358       .  A
C17          N18   1.360       .  A
C17          C99   1.441       .  S
C19          N20   1.355       .  A
C19          N24   1.357       .  A
C19          C95   1.431       .  S
N20          C21   1.355       .  A
C21          N22   1.356       .  A
C21          C94   1.432       .  S
N22          C23   1.357       .  A
C23          N24   1.357       .  A
C23          C87   1.432       .  S
O25          C33   1.268   1_565  A
O25        Co313   2.008       .  S
O26          C34   1.242       .  A
O26         Co46   1.958       .  S
O27          C35   1.262       .  A
O27         Co47   1.977       .  S
O28          C36   1.250       .  A
O28         Co48   1.997       .  S
O29          C35   1.270       .  A
O29        Co582   2.015   1_455  S
O30         C572   1.241   1_455  A
O30         Co45   1.963       .  S
O31          C34   1.252   1_565  A
O31        Co316   1.998       .  S
O32          C33   1.262       .  A
O32         Co47   1.975       .  S
C33         C134   1.432       .  S
C34         C126   1.430       .  S
C35         C102   1.439       .  S
C36         C219   1.433       .  S
C36         O566   1.241       .  A
O37          C50   1.268       .  A
O37        Co581   1.891       .  S
O38         C319   1.256   1_565  A
O38         Co46   1.978   1_565  S
O39          C52   1.266       .  A
O39        Co315   2.020       .  S
O40          C53   1.298       .  A
O40         Co48   2.083       .  S
O41          C53   1.269       .  A
O41        Co314   1.898       .  S
O42          C52   1.256       .  A
O42         Co45   1.988       .  S
O43          C50   1.298       .  A
O43         Co48   2.081       .  S
O44         C855   1.265       .  A
O44         Co47   2.012       .  S
Co45        O293   2.008       .  S
Co45        O573   1.891       .  S
Co45        O585   1.920       .  S
Co46        O565   2.015       .  S
Co46        O309   1.898       .  S
Co46        O317   1.924       .  S
Co47        O307   2.020       .  S
Co47        O853   2.094       .  S
Co48        O299   1.998       .  S
Co48         O49   2.258       .  S
O49        Co581   1.920       .  S
O49        Co314   1.924       .  S
O49        Co851   2.094       .  S
C50         C130   1.431       .  S
C51          C83   1.432       .  S
C51         O306   1.256       .  A
C51         O848   1.265       .  A
C52         C107   1.441       .  S
C53         C106   1.441       .  S
O54          C62   1.269   1_565  A
O54        Co342   1.898       .  S
O55          C63   1.256       .  A
O55         Co75   1.988       .  S
O56          C64   1.298       .  A
O56         Co76   2.081       .  S
O57          C65   1.265       .  A
O57         Co77   2.012       .  S
O58          C64   1.268   1_655  A
O58        Co611   1.891       .  S
O59         C601   1.256   1_455  A
O59         Co74   1.978       .  S
O60          C63   1.266   1_565  A
O60        Co345   2.020       .  S
O61          C62   1.298       .  A
O61         Co76   2.083       .  S
C62         C119   1.441       .  S
C63         C111   1.441       .  S
C64          C90   1.431       .  S
C65          C84   1.432       .  S
C65         O595   1.256       .  A
O66          C79   1.270       .  A
O66        Co610   2.015       .  S
O67         C348   1.241   1_565  A
O67         Co75   1.963   1_565  S
O68          C81   1.252       .  A
O68        Co344   1.998       .  S
O69          C82   1.262       .  A
O69         Co77   1.975       .  S
O70          C82   1.268       .  A
O70        Co343   2.008       .  S
O71          C81   1.242       .  A
O71         Co74   1.958       .  S
O72          C79   1.262       .  A
O72         Co77   1.977       .  S
O73         C884   1.250       .  A
O73         Co76   1.997       .  S
Co74        O322   1.898       .  S
Co74        O602   2.015   1_455  S
Co74        O614   1.924   1_455  S
Co75        O594   1.891       .  S
Co75        O338   2.008   1_545  S
Co75        O346   1.920   1_545  S
Co76        O336   1.998   1_545  S
Co76        O882   2.258   1_445  S
Co77        O328   2.020       .  S
Co77         O78   2.094       .  S
O78        Co610   1.924       .  S
O78        Co343   1.920       .  S
O78        Co880   2.258       .  S
C79         C118   1.439       .  S
C80          C86   1.433       .  S
C80         O335   1.241       .  A
C80         O877   1.250       .  A
C81          C98   1.430       .  S
C82          C91   1.432       .  S
C83          C84   1.204       .  T
C85         C170   1.433   1_554  S
C85          C86   1.204       .  T
C87          C88   1.203       .  T
C88          C89   1.409       .  S
C89          C90   1.203       .  T
C91          C92   1.204       .  T
C92          C93   1.408       .  S
C93          C94   1.203       .  T
C95          C96   1.203       .  T
C96          C97   1.407       .  S
C97          C98   1.203       .  T
C99         C100   1.209       .  T
C100        C101   1.417       .  S
C101        C102   1.208       .  T
C103        C104   1.209       .  T
C104        C105   1.418       .  S
C105        C106   1.209       .  T
C107        C108   1.210       .  T
C108        C109   1.419       .  S
C109        C110   1.210       .  T
C111        C112   1.210       .  T
C112        C113   1.419       .  S
C113        C114   1.210       .  T
C115        C116   1.209       .  T
C116        C117   1.417       .  S
C117        C118   1.208       .  T
C119        C120   1.209       .  T
C120        C121   1.418       .  S
C121        C122   1.209       .  T
C123        C135   1.431       .  S
C123        C124   1.203       .  T
C124        C125   1.407       .  S
C125        C126   1.203       .  T
C127        C137   1.432       .  S
C127        C128   1.203       .  T
C128        C129   1.409       .  S
C129        C130   1.203       .  T
C131        C139   1.432       .  S
C131        C132   1.203       .  T
C132        C133   1.408       .  S
C133        C134   1.204       .  T
C135        N136   1.357       .  A
C135        N140   1.355       .  A
N136        C137   1.357       .  A
C137        N138   1.357       .  A
N138        C139   1.356       .  A
C139        N140   1.355       .  A
C141        N142   1.359       .  A
C141        N146   1.360       .  A
C141        C248   1.443       .  S
N142        C143   1.358       .  A
C143        N144   1.358       .  A
C143        C256   1.442       .  S
N144        C145   1.358       .  A
C145        N146   1.360       .  A
C145        C249   1.441       .  S
C147        N148   1.359       .  A
C147        N152   1.360       .  A
C147        C244   1.443       .  S
N148        C149   1.358       .  A
C149        N150   1.357       .  A
C149        C237   1.442       .  S
N150        C151   1.358       .  A
C151        N152   1.360       .  A
C151        C233   1.441       .  S
C153        N154   1.355       .  A
C153        N158   1.357       .  A
C153        C229   1.431       .  S
N154        C155   1.355       .  A
C155        N156   1.356       .  A
C155        C228   1.432       .  S
N156        C157   1.357       .  A
C157        N158   1.357       .  A
C157        C221   1.432       .  S
O159        C167   1.268   1_565  A
O159       Co447   2.008       .  S
O160        C168   1.242       .  A
O160       Co180   1.958       .  S
O161        C169   1.262       .  A
O161       Co181   1.977       .  S
O162        C170   1.250       .  A
O162       Co182   1.997       .  S
O163        C169   1.270       .  A
O163       Co716   2.015   1_455  S
O164        C706   1.241   1_455  A
O164       Co179   1.963       .  S
O165        C168   1.252   1_565  A
O165       Co450   1.998       .  S
O166        C167   1.262       .  A
O166       Co181   1.975       .  S
C167        C268   1.432       .  S
C168        C260   1.430       .  S
C169        C236   1.439       .  S
C170        O700   1.241       .  A
O171        C184   1.268       .  A
O171       Co715   1.891       .  S
O172        C453   1.256   1_565  A
O172       Co180   1.978   1_565  S
O173        C186   1.266       .  A
O173       Co449   2.020       .  S
O174        C187   1.298       .  A
O174       Co182   2.083       .  S
O175        C187   1.269       .  A
O175       Co448   1.898       .  S
O176        C186   1.256       .  A
O176       Co179   1.988       .  S
O177        C184   1.298       .  A
O177       Co182   2.081       .  S
O178        C989   1.265       .  A
O178       Co181   2.012       .  S
Co179       O427   2.008       .  S
Co179       O707   1.891       .  S
Co179       O719   1.920       .  S
Co180       O699   2.015       .  S
Co180       O443   1.898       .  S
Co180       O451   1.924       .  S
Co181       O441   2.020       .  S
Co181       O987   2.094       .  S
Co182       O433   1.998       .  S
Co182       O183   2.258       .  S
O183       Co715   1.920       .  S
O183       Co448   1.924       .  S
O183       Co985   2.094       .  S
C184        C264   1.431       .  S
C185        C217   1.432       .  S
C185        O440   1.256       .  A
C185        O982   1.265       .  A
C186        C241   1.441       .  S
C187        C240   1.441       .  S
O188        C196   1.269   1_565  A
O188       Co476   1.898       .  S
O189        C197   1.256       .  A
O189       Co209   1.988       .  S
O190        C198   1.298       .  A
O190       Co210   2.081       .  S
O191        C199   1.265       .  A
O191       Co211   2.012       .  S
O192        C198   1.268   1_655  A
O192       Co745   1.891       .  S
O193        C735   1.256   1_455  A
O193       Co208   1.978       .  S
O194        C197   1.266   1_565  A
O194       Co479   2.020       .  S
O195        C196   1.298       .  A
O195       Co210   2.083       .  S
C196        C253   1.441       .  S
C197        C245   1.441       .  S
C198        C224   1.431       .  S
C199        C218   1.432       .  S
C199        O729   1.256       .  A
O200        C213   1.270       .  A
O200       Co744   2.015       .  S
O201        C482   1.241   1_565  A
O201       Co209   1.963   1_565  S
O202        C215   1.252       .  A
O202       Co478   1.998       .  S
O203        C216   1.262       .  A
O203       Co211   1.975       .  S
O204        C216   1.268       .  A
O204       Co477   2.008       .  S
O205        C215   1.242       .  A
O205       Co208   1.958       .  S
O206        C213   1.262       .  A
O206       Co211   1.977       .  S
O207       C1018   1.250       .  A
O207       Co210   1.997       .  S
Co208       O456   1.898       .  S
Co208       O736   2.015   1_455  S
Co208       O748   1.924   1_455  S
Co209       O728   1.891       .  S
Co209       O472   2.008   1_545  S
Co209       O480   1.920   1_545  S
Co210       O470   1.998   1_545  S
Co210      O1016   2.258   1_445  S
Co211       O462   2.020       .  S
Co211       O212   2.094       .  S
O212       Co744   1.924       .  S
O212       Co477   1.920       .  S
O212      Co1014   2.258       .  S
C213        C252   1.439       .  S
C214        C220   1.433       .  S
C214        O469   1.241       .  A
C214       O1011   1.250       .  A
C215        C232   1.430       .  S
C216        C225   1.432       .  S
C217        C218   1.204       .  T
C219        C220   1.204       .  T
C221        C222   1.203       .  T
C222        C223   1.409       .  S
C223        C224   1.203       .  T
C225        C226   1.204       .  T
C226        C227   1.408       .  S
C227        C228   1.203       .  T
C229        C230   1.203       .  T
C230        C231   1.407       .  S
C231        C232   1.203       .  T
C233        C234   1.209       .  T
C234        C235   1.417       .  S
C235        C236   1.208       .  T
C237        C238   1.209       .  T
C238        C239   1.418       .  S
C239        C240   1.209       .  T
C241        C242   1.210       .  T
C242        C243   1.419       .  S
C243        C244   1.210       .  T
C245        C246   1.210       .  T
C246        C247   1.419       .  S
C247        C248   1.210       .  T
C249        C250   1.209       .  T
C250        C251   1.417       .  S
C251        C252   1.208       .  T
C253        C254   1.209       .  T
C254        C255   1.418       .  S
C255        C256   1.209       .  T
C257        C258   1.203       .  T
C258        C259   1.407       .  S
C259        C260   1.203       .  T
C261        C262   1.203       .  T
C262        C263   1.409       .  S
C263        C264   1.203       .  T
C265        C266   1.203       .  T
C266        C267   1.408       .  S
C267        C268   1.204       .  T
C269        N270   1.357       .  A
C269        N274   1.355       .  A
C269        C525   1.431       .  S
N270        C271   1.357       .  A
C271        N272   1.357       .  A
C271        C529   1.432       .  S
N272        C273   1.356       .  A
C273        N274   1.355       .  A
C273        C533   1.432       .  S
C275        N276   1.359       .  A
C275        N280   1.360       .  A
C275        C382   1.443       .  S
N276        C277   1.358       .  A
C277        N278   1.358       .  A
C277        C390   1.442       .  S
N278        C279   1.358       .  A
C279        N280   1.360       .  A
C279        C383   1.441       .  S
C281        N282   1.359       .  A
C281        N286   1.360       .  A
C281        C378   1.443       .  S
N282        C283   1.358       .  A
C283        N284   1.358       .  A
C283        C371   1.442       .  S
N284        C285   1.358       .  A
C285        N286   1.360       .  A
C285        C367   1.441       .  S
C287        N288   1.355       .  A
C287        N292   1.357       .  A
C287        C363   1.431       .  S
N288        C289   1.355       .  A
C289        N290   1.356       .  A
C289        C362   1.432       .  S
N290        C291   1.357       .  A
C291        N292   1.357       .  A
C291        C355   1.432       .  S
O293        C301   1.268       .  A
O294        C302   1.242       .  A
O294       Co314   1.958       .  S
O295        C303   1.262       .  A
O295       Co315   1.977       .  S
O296        C304   1.250       .  A
O296       Co316   1.997       .  S
O297        C303   1.270       .  A
O297       Co850   2.015   1_455  S
O298        C840   1.241   1_455  A
O298       Co313   1.963       .  S
O299        C302   1.252       .  A
O300        C301   1.262       .  A
O300       Co315   1.975       .  S
C301        C402   1.432       .  S
C302        C394   1.430       .  S
C303        C370   1.439       .  S
C304        C487   1.433       .  S
C304        O834   1.241       .  A
O305        C318   1.268       .  A
O305       Co849   1.891       .  S
O306       Co314   1.978       .  S
O307        C320   1.266   1_545  A
O308        C321   1.298       .  A
O308       Co316   2.083       .  S
O309        C321   1.269   1_545  A
O310        C320   1.256       .  A
O310       Co313   1.988       .  S
O311        C318   1.298       .  A
O311       Co316   2.081       .  S
O312        C587   1.265       .  A
O312       Co315   2.012       .  S
Co313       O841   1.891       .  S
Co313       O853   1.920   1_565  S
Co314       O833   2.015       .  S
Co315       O585   2.094       .  S
Co316       O317   2.258   1_565  S
O317       Co849   1.920   1_545  S
O317       Co583   2.094       .  S
C318        C398   1.431       .  S
C319        C351   1.432   1_545  S
C319        O580   1.265       .  A
C320        C375   1.441       .  S
C321        C374   1.441       .  S
O322        C330   1.269       .  A
O323        C331   1.256       .  A
O323       Co343   1.988       .  S
O324        C332   1.298       .  A
O324       Co344   2.081       .  S
O325        C333   1.265       .  A
O325       Co345   2.012       .  S
O326        C332   1.268   1_655  A
O326       Co879   1.891       .  S
O327        C869   1.256   1_455  A
O327       Co342   1.978       .  S
O328        C331   1.266       .  A
O329        C330   1.298       .  A
O329       Co344   2.083       .  S
C330        C387   1.441       .  S
C331        C379   1.441       .  S
C332        C358   1.431       .  S
C333        C352   1.432       .  S
C333        O863   1.256       .  A
O334        C347   1.270       .  A
O334       Co878   2.015       .  S
O335       Co343   1.963       .  S
O336        C349   1.252       .  A
O337        C350   1.262       .  A
O337       Co345   1.975       .  S
O338        C350   1.268       .  A
O339        C349   1.242       .  A
O339       Co342   1.958       .  S
O340        C347   1.262       .  A
O340       Co345   1.977       .  S
O341        C616   1.250       .  A
O341       Co344   1.997       .  S
Co342       O870   2.015   1_455  S
Co342       O882   1.924   1_455  S
Co343       O862   1.891       .  S
Co344       O614   2.258   1_455  S
Co345       O346   2.094       .  S
O346       Co878   1.924       .  S
O346       Co612   2.258   1_565  S
C347        C386   1.439       .  S
C348        C354   1.433   1_545  S
C348        O609   1.250       .  A
C349        C366   1.430       .  S
C350        C359   1.432       .  S
C351        C352   1.204       .  T
C353        C438   1.433   1_554  S
C353        C354   1.204       .  T
C355        C356   1.203       .  T
C356        C357   1.409       .  S
C357        C358   1.203       .  T
C359        C360   1.204       .  T
C360        C361   1.408       .  S
C361        C362   1.203       .  T
C363        C364   1.203       .  T
C364        C365   1.407       .  S
C365        C366   1.203       .  T
C367        C368   1.209       .  T
C368        C369   1.417       .  S
C369        C370   1.208       .  T
C371        C372   1.209       .  T
C372        C373   1.418       .  S
C373        C374   1.209       .  T
C375        C376   1.210       .  T
C376        C377   1.419       .  S
C377        C378   1.210       .  T
C379        C380   1.210       .  T
C380        C381   1.419       .  S
C381        C382   1.210       .  T
C383        C384   1.209       .  T
C384        C385   1.417       .  S
C385        C386   1.208       .  T
C387        C388   1.209       .  T
C388        C389   1.418       .  S
C389        C390   1.209       .  T
C391        C403   1.431       .  S
C391        C392   1.203       .  T
C392        C393   1.407       .  S
C393        C394   1.203       .  T
C395        C405   1.432       .  S
C395        C396   1.203       .  T
C396        C397   1.408       .  S
C397        C398   1.203       .  T
C399        C407   1.432       .  S
C399        C400   1.203       .  T
C400        C401   1.408       .  S
C401        C402   1.204       .  T
C403        N404   1.357       .  A
C403        N408   1.355       .  A
N404        C405   1.357       .  A
C405        N406   1.357       .  A
N406        C407   1.356       .  A
C407        N408   1.355       .  A
C409        N410   1.359       .  A
C409        N414   1.360       .  A
C409        C516   1.443       .  S
N410        C411   1.358       .  A
C411        N412   1.357       .  A
C411        C524   1.442       .  S
N412        C413   1.358       .  A
C413        N414   1.360       .  A
C413        C517   1.441       .  S
C415        N416   1.359       .  A
C415        N420   1.360       .  A
C415        C512   1.443       .  S
N416        C417   1.358       .  A
C417        N418   1.358       .  A
C417        C505   1.442       .  S
N418        C419   1.358       .  A
C419        N420   1.360       .  A
C419        C501   1.441       .  S
C421        N422   1.355       .  A
C421        N426   1.357       .  A
C421        C497   1.431       .  S
N422        C423   1.355       .  A
C423        N424   1.356       .  A
C423        C496   1.432       .  S
N424        C425   1.357       .  A
C425        N426   1.357       .  A
C425        C489   1.432       .  S
O427        C435   1.268       .  A
O428        C436   1.242       .  A
O428       Co448   1.958       .  S
O429        C437   1.262       .  A
O429       Co449   1.977       .  S
O430        C438   1.250       .  A
O430       Co450   1.997       .  S
O431        C437   1.270       .  A
O431       Co984   2.015   1_455  S
O432        C974   1.241   1_455  A
O432       Co447   1.963       .  S
O433        C436   1.252       .  A
O434        C435   1.262       .  A
O434       Co449   1.975       .  S
C435        C536   1.432       .  S
C436        C528   1.430       .  S
C437        C504   1.439       .  S
C438        O968   1.241       .  A
O439        C452   1.268       .  A
O439       Co983   1.891       .  S
O440       Co448   1.978       .  S
O441        C454   1.266   1_545  A
O442        C455   1.298       .  A
O442       Co450   2.083       .  S
O443        C455   1.269   1_545  A
O444        C454   1.256       .  A
O444       Co447   1.988       .  S
O445        C452   1.298       .  A
O445       Co450   2.081       .  S
O446        C721   1.265       .  A
O446       Co449   2.012       .  S
Co447       O975   1.891       .  S
Co447       O987   1.920   1_565  S
Co448       O967   2.015       .  S
Co449       O719   2.094       .  S
Co450       O451   2.258   1_565  S
O451       Co983   1.920   1_545  S
O451       Co717   2.094       .  S
C452        C532   1.431       .  S
C453        C485   1.432   1_545  S
C453        O714   1.265       .  A
C454        C509   1.441       .  S
C455        C508   1.441       .  S
O456        C464   1.269       .  A
O457        C465   1.256       .  A
O457       Co477   1.988       .  S
O458        C466   1.298       .  A
O458       Co478   2.081       .  S
O459        C467   1.265       .  A
O459       Co479   2.012       .  S
O460        C466   1.268   1_655  A
O460      Co1013   1.891       .  S
O461       C1003   1.256   1_455  A
O461       Co476   1.978       .  S
O462        C465   1.266       .  A
O463        C464   1.298       .  A
O463       Co478   2.083       .  S
C464        C521   1.441       .  S
C465        C513   1.441       .  S
C466        C492   1.431       .  S
C467        C486   1.432       .  S
C467        O997   1.256       .  A
O468        C481   1.270       .  A
O468      Co1012   2.015       .  S
O469       Co477   1.963       .  S
O470        C483   1.252       .  A
O471        C484   1.262       .  A
O471       Co479   1.975       .  S
O472        C484   1.268       .  A
O473        C483   1.242       .  A
O473       Co476   1.958       .  S
O474        C481   1.262       .  A
O474       Co479   1.977       .  S
O475        C750   1.250       .  A
O475       Co478   1.997       .  S
Co476      O1004   2.015   1_455  S
Co476      O1016   1.924   1_455  S
Co477       O996   1.891       .  S
Co478       O748   2.258   1_455  S
Co479       O480   2.094       .  S
O480      Co1012   1.924       .  S
O480       Co746   2.258   1_565  S
C481        C520   1.439       .  S
C482        C488   1.433   1_545  S
C482        O743   1.250       .  A
C483        C500   1.430       .  S
C484        C493   1.432       .  S
C485        C486   1.204       .  T
C487        C488   1.204       .  T
C489        C490   1.203       .  T
C490        C491   1.409       .  S
C491        C492   1.203       .  T
C493        C494   1.204       .  T
C494        C495   1.408       .  S
C495        C496   1.203       .  T
C497        C498   1.203       .  T
C498        C499   1.407       .  S
C499        C500   1.203       .  T
C501        C502   1.209       .  T
C502        C503   1.417       .  S
C503        C504   1.208       .  T
C505        C506   1.209       .  T
C506        C507   1.418       .  S
C507        C508   1.209       .  T
C509        C510   1.210       .  T
C510        C511   1.419       .  S
C511        C512   1.210       .  T
C513        C514   1.210       .  T
C514        C515   1.419       .  S
C515        C516   1.210       .  T
C517        C518   1.209       .  T
C518        C519   1.417       .  S
C519        C520   1.208       .  T
C521        C522   1.209       .  T
C522        C523   1.418       .  S
C523        C524   1.209       .  T
C525        C526   1.203       .  T
C526        C527   1.407       .  S
C527        C528   1.203       .  T
C529        C530   1.203       .  T
C530        C531   1.408       .  S
C531        C532   1.203       .  T
C533        C534   1.203       .  T
C534        C535   1.408       .  S
C535        C536   1.204       .  T
C537        N538   1.357       .  A
C537        N542   1.355       .  A
C537        C793   1.431       .  S
N538        C539   1.357       .  A
C539        N540   1.357       .  A
C539        C797   1.432       .  S
N540        C541   1.356       .  A
C541        N542   1.355       .  A
C541        C801   1.432       .  S
C543        N544   1.359       .  A
C543        N548   1.360       .  A
C543        C650   1.443       .  S
N544        C545   1.358       .  A
C545        N546   1.358       .  A
C545        C658   1.442       .  S
N546        C547   1.358       .  A
C547        N548   1.360       .  A
C547        C651   1.441       .  S
C549        N550   1.359       .  A
C549        N554   1.360       .  A
C549        C646   1.443       .  S
N550        C551   1.358       .  A
C551        N552   1.358       .  A
C551        C639   1.442       .  S
N552        C553   1.358       .  A
C553        N554   1.360       .  A
C553        C635   1.441       .  S
C555        N556   1.355       .  A
C555        N560   1.357       .  A
C555        C631   1.431       .  S
N556        C557   1.355       .  A
C557        N558   1.356       .  A
C557        C630   1.432       .  S
N558        C559   1.357       .  A
C559        N560   1.357       .  A
C559        C623   1.432       .  S
O561        C569   1.268   1_565  A
O561       Co849   2.008       .  S
O562        C570   1.242       .  A
O562       Co582   1.958       .  S
O563        C571   1.262       .  A
O563       Co583   1.977       .  S
O564        C572   1.250       .  A
O564       Co584   1.997       .  S
O565        C571   1.270       .  A
O566       Co581   1.963       .  S
O567        C570   1.252   1_565  A
O567       Co852   1.998       .  S
O568        C569   1.262       .  A
O568       Co583   1.975       .  S
C569        C670   1.432       .  S
C570        C662   1.430       .  S
C571        C638   1.439       .  S
C572        C755   1.433       .  S
O573        C586   1.268   1_455  A
O574        C855   1.256   1_665  A
O574       Co582   1.978   1_565  S
O575        C588   1.266       .  A
O575       Co851   2.020       .  S
O576        C589   1.298       .  A
O576       Co584   2.083       .  S
O577        C589   1.269       .  A
O577       Co850   1.898       .  S
O578        C588   1.256       .  A
O578       Co581   1.988       .  S
O579        C586   1.298       .  A
O579       Co584   2.081       .  S
O580       Co583   2.012       .  S
Co581       O829   2.008       .  S
Co582       O845   1.898       .  S
Co582       O853   1.924   1_655  S
Co583       O843   2.020       .  S
Co584       O835   1.998       .  S
Co584       O585   2.258   1_655  S
O585       Co850   1.924   1_455  S
C586        C666   1.431       .  S
C587        C619   1.432   1_455  S
C587        O842   1.256   1_455  A
C588        C643   1.441       .  S
C589        C642   1.441       .  S
O590        C598   1.269   1_565  A
O590       Co878   1.898       .  S
O591        C599   1.256       .  A
O591       Co611   1.988       .  S
O592        C600   1.298       .  A
O592       Co612   2.081       .  S
O593        C601   1.265       .  A
O593       Co613   2.012       .  S
O594        C600   1.268       .  A
O595       Co610   1.978       .  S
O596        C599   1.266   1_565  A
O596       Co881   2.020       .  S
O597        C598   1.298       .  A
O597       Co612   2.083       .  S
C598        C655   1.441       .  S
C599        C647   1.441       .  S
C600        C626   1.431       .  S
C601        C620   1.432       .  S
O602        C615   1.270       .  A
O603        C884   1.241   1_665  A
O603       Co611   1.963   1_565  S
O604        C617   1.252       .  A
O604       Co880   1.998       .  S
O605        C618   1.262       .  A
O605       Co613   1.975       .  S
O606        C618   1.268       .  A
O606       Co879   2.008       .  S
O607        C617   1.242       .  A
O607       Co610   1.958       .  S
O608        C615   1.262       .  A
O608       Co613   1.977       .  S
O609       Co612   1.997       .  S
Co610       O858   1.898       .  S
Co611       O874   2.008   1_545  S
Co611       O882   1.920   1_545  S
Co612       O872   1.998   1_545  S
Co613       O864   2.020       .  S
Co613       O614   2.094       .  S
O614       Co879   1.920       .  S
C615        C654   1.439       .  S
C616        C622   1.433   1_455  S
C616        O871   1.241   1_455  A
C617        C634   1.430       .  S
C618        C627   1.432       .  S
C619        C620   1.204       .  T
C621        C706   1.433   1_554  S
C621        C622   1.204       .  T
C623        C624   1.203       .  T
C624        C625   1.409       .  S
C625        C626   1.203       .  T
C627        C628   1.204       .  T
C628        C629   1.408       .  S
C629        C630   1.203       .  T
C631        C632   1.203       .  T
C632        C633   1.407       .  S
C633        C634   1.203       .  T
C635        C636   1.209       .  T
C636        C637   1.417       .  S
C637        C638   1.208       .  T
C639        C640   1.209       .  T
C640        C641   1.418       .  S
C641        C642   1.209       .  T
C643        C644   1.210       .  T
C644        C645   1.419       .  S
C645        C646   1.210       .  T
C647        C648   1.210       .  T
C648        C649   1.419       .  S
C649        C650   1.210       .  T
C651        C652   1.209       .  T
C652        C653   1.417       .  S
C653        C654   1.208       .  T
C655        C656   1.209       .  T
C656        C657   1.418       .  S
C657        C658   1.209       .  T
C659        C671   1.431       .  S
C659        C660   1.203       .  T
C660        C661   1.407       .  S
C661        C662   1.203       .  T
C663        C673   1.432       .  S
C663        C664   1.203       .  T
C664        C665   1.409       .  S
C665        C666   1.203       .  T
C667        C675   1.432       .  S
C667        C668   1.203       .  T
C668        C669   1.408       .  S
C669        C670   1.204       .  T
C671        N672   1.357       .  A
C671        N676   1.355       .  A
N672        C673   1.357       .  A
C673        N674   1.357       .  A
N674        C675   1.356       .  A
C675        N676   1.355       .  A
C677        N678   1.359       .  A
C677        N682   1.360       .  A
C677        C784   1.443       .  S
N678        C679   1.358       .  A
C679        N680   1.358       .  A
C679        C792   1.442       .  S
N680        C681   1.358       .  A
C681        N682   1.360       .  A
C681        C785   1.441       .  S
C683        N684   1.359       .  A
C683        N688   1.360       .  A
C683        C780   1.443       .  S
N684        C685   1.358       .  A
C685        N686   1.357       .  A
C685        C773   1.442       .  S
N686        C687   1.358       .  A
C687        N688   1.360       .  A
C687        C769   1.441       .  S
C689        N690   1.355       .  A
C689        N694   1.357       .  A
C689        C765   1.431       .  S
N690        C691   1.355       .  A
C691        N692   1.356       .  A
C691        C764   1.432       .  S
N692        C693   1.357       .  A
C693        N694   1.357       .  A
C693        C757   1.432       .  S
O695        C703   1.268   1_565  A
O695       Co983   2.008       .  S
O696        C704   1.242       .  A
O696       Co716   1.958       .  S
O697        C705   1.262       .  A
O697       Co717   1.977       .  S
O698        C706   1.250       .  A
O698       Co718   1.997       .  S
O699        C705   1.270       .  A
O700       Co715   1.963       .  S
O701        C704   1.252   1_565  A
O701       Co986   1.998       .  S
O702        C703   1.262       .  A
O702       Co717   1.975       .  S
C703        C804   1.432       .  S
C704        C796   1.430       .  S
C705        C772   1.439       .  S
O707        C720   1.268   1_455  A
O708        C989   1.256   1_665  A
O708       Co716   1.978   1_565  S
O709        C722   1.266       .  A
O709       Co985   2.020       .  S
O710        C723   1.298       .  A
O710       Co718   2.083       .  S
O711        C723   1.269       .  A
O711       Co984   1.898       .  S
O712        C722   1.256       .  A
O712       Co715   1.988       .  S
O713        C720   1.298       .  A
O713       Co718   2.081       .  S
O714       Co717   2.012       .  S
Co715       O963   2.008       .  S
Co716       O979   1.898       .  S
Co716       O987   1.924   1_655  S
Co717       O977   2.020       .  S
Co718       O969   1.998       .  S
Co718       O719   2.258   1_655  S
O719       Co984   1.924   1_455  S
C720        C800   1.431       .  S
C721        C753   1.432   1_455  S
C721        O976   1.256   1_455  A
C722        C777   1.441       .  S
C723        C776   1.441       .  S
O724        C732   1.269   1_565  A
O724      Co1012   1.898       .  S
O725        C733   1.256       .  A
O725       Co745   1.988       .  S
O726        C734   1.298       .  A
O726       Co746   2.081       .  S
O727        C735   1.265       .  A
O727       Co747   2.012       .  S
O728        C734   1.268       .  A
O729       Co744   1.978       .  S
O730        C733   1.266   1_565  A
O730      Co1015   2.020       .  S
O731        C732   1.298       .  A
O731       Co746   2.083       .  S
C732        C789   1.441       .  S
C733        C781   1.441       .  S
C734        C760   1.431       .  S
C735        C754   1.432       .  S
O736        C749   1.270       .  A
O737       C1018   1.241   1_665  A
O737       Co745   1.963   1_565  S
O738        C751   1.252       .  A
O738      Co1014   1.998       .  S
O739        C752   1.262       .  A
O739       Co747   1.975       .  S
O740        C752   1.268       .  A
O740      Co1013   2.008       .  S
O741        C751   1.242       .  A
O741       Co744   1.958       .  S
O742        C749   1.262       .  A
O742       Co747   1.977       .  S
O743       Co746   1.997       .  S
Co744       O992   1.898       .  S
Co745      O1008   2.008   1_545  S
Co745      O1016   1.920   1_545  S
Co746      O1006   1.998   1_545  S
Co747       O998   2.020       .  S
Co747       O748   2.094       .  S
O748      Co1013   1.920       .  S
C749        C788   1.439       .  S
C750        C756   1.433   1_455  S
C750       O1005   1.241   1_455  A
C751        C768   1.430       .  S
C752        C761   1.432       .  S
C753        C754   1.204       .  T
C755        C756   1.204       .  T
C757        C758   1.203       .  T
C758        C759   1.409       .  S
C759        C760   1.203       .  T
C761        C762   1.204       .  T
C762        C763   1.408       .  S
C763        C764   1.203       .  T
C765        C766   1.203       .  T
C766        C767   1.407       .  S
C767        C768   1.203       .  T
C769        C770   1.209       .  T
C770        C771   1.417       .  S
C771        C772   1.208       .  T
C773        C774   1.209       .  T
C774        C775   1.418       .  S
C775        C776   1.209       .  T
C777        C778   1.210       .  T
C778        C779   1.419       .  S
C779        C780   1.210       .  T
C781        C782   1.210       .  T
C782        C783   1.419       .  S
C783        C784   1.210       .  T
C785        C786   1.209       .  T
C786        C787   1.417       .  S
C787        C788   1.208       .  T
C789        C790   1.209       .  T
C790        C791   1.418       .  S
C791        C792   1.209       .  T
C793        C794   1.203       .  T
C794        C795   1.407       .  S
C795        C796   1.203       .  T
C797        C798   1.203       .  T
C798        C799   1.409       .  S
C799        C800   1.203       .  T
C801        C802   1.203       .  T
C802        C803   1.408       .  S
C803        C804   1.204       .  T
C805        N806   1.357       .  A
C805        N810   1.355       .  A
C805       C1061   1.431       .  S
N806        C807   1.357       .  A
C807        N808   1.357       .  A
C807       C1065   1.432       .  S
N808        C809   1.356       .  A
C809        N810   1.355       .  A
C809       C1069   1.432       .  S
C811        N812   1.359       .  A
C811        N816   1.360       .  A
C811        C918   1.443       .  S
N812        C813   1.358       .  A
C813        N814   1.358       .  A
C813        C926   1.442       .  S
N814        C815   1.358       .  A
C815        N816   1.360       .  A
C815        C919   1.441       .  S
C817        N818   1.359       .  A
C817        N822   1.360       .  A
C817        C914   1.443       .  S
N818        C819   1.358       .  A
C819        N820   1.358       .  A
C819        C907   1.442       .  S
N820        C821   1.358       .  A
C821        N822   1.360       .  A
C821        C903   1.441       .  S
C823        N824   1.355       .  A
C823        N828   1.357       .  A
C823        C899   1.431       .  S
N824        C825   1.355       .  A
C825        N826   1.356       .  A
C825        C898   1.432       .  S
N826        C827   1.357       .  A
C827        N828   1.357       .  A
C827        C891   1.432       .  S
O829        C837   1.268       .  A
O830        C838   1.242       .  A
O830       Co850   1.958       .  S
O831        C839   1.262       .  A
O831       Co851   1.977       .  S
O832        C840   1.250       .  A
O832       Co852   1.997       .  S
O833        C839   1.270       .  A
O834       Co849   1.963       .  S
O835        C838   1.252       .  A
O836        C837   1.262       .  A
O836       Co851   1.975       .  S
C837        C938   1.432       .  S
C838        C930   1.430       .  S
C839        C906   1.439       .  S
C840       C1023   1.433       .  S
O841        C854   1.268   1_455  A
O842       Co850   1.978       .  S
O843        C856   1.266   1_545  A
O844        C857   1.298       .  A
O844       Co852   2.083       .  S
O845        C857   1.269   1_545  A
O846        C856   1.256       .  A
O846       Co849   1.988       .  S
O847        C854   1.298       .  A
O847       Co852   2.081       .  S
O848       Co851   2.012       .  S
Co852       O853   2.258   1_665  S
C854        C934   1.431       .  S
C855        C887   1.432   1_445  S
C856        C911   1.441       .  S
C857        C910   1.441       .  S
O858        C866   1.269       .  A
O859        C867   1.256       .  A
O859       Co879   1.988       .  S
O860        C868   1.298       .  A
O860       Co880   2.081       .  S
O861        C869   1.265       .  A
O861       Co881   2.012       .  S
O862        C868   1.268       .  A
O863       Co878   1.978       .  S
O864        C867   1.266       .  A
O865        C866   1.298       .  A
O865       Co880   2.083       .  S
C866        C923   1.441       .  S
C867        C915   1.441       .  S
C868        C894   1.431       .  S
C869        C888   1.432       .  S
O870        C883   1.270       .  A
O871       Co879   1.963       .  S
O872        C885   1.252       .  A
O873        C886   1.262       .  A
O873       Co881   1.975       .  S
O874        C886   1.268       .  A
O875        C885   1.242       .  A
O875       Co878   1.958       .  S
O876        C883   1.262       .  A
O876       Co881   1.977       .  S
O877       Co880   1.997       .  S
Co881       O882   2.094       .  S
C883        C922   1.439       .  S
C884        C890   1.433   1_445  S
C885        C902   1.430       .  S
C886        C895   1.432       .  S
C887        C888   1.204       .  T
C889        C974   1.433   1_554  S
C889        C890   1.204       .  T
C891        C892   1.203       .  T
C892        C893   1.409       .  S
C893        C894   1.203       .  T
C895        C896   1.204       .  T
C896        C897   1.408       .  S
C897        C898   1.203       .  T
C899        C900   1.203       .  T
C900        C901   1.407       .  S
C901        C902   1.203       .  T
C903        C904   1.209       .  T
C904        C905   1.417       .  S
C905        C906   1.208       .  T
C907        C908   1.209       .  T
C908        C909   1.418       .  S
C909        C910   1.209       .  T
C911        C912   1.210       .  T
C912        C913   1.419       .  S
C913        C914   1.210       .  T
C915        C916   1.210       .  T
C916        C917   1.419       .  S
C917        C918   1.210       .  T
C919        C920   1.209       .  T
C920        C921   1.417       .  S
C921        C922   1.208       .  T
C923        C924   1.209       .  T
C924        C925   1.418       .  S
C925        C926   1.209       .  T
C927        C939   1.431       .  S
C927        C928   1.203       .  T
C928        C929   1.407       .  S
C929        C930   1.203       .  T
C931        C941   1.432       .  S
C931        C932   1.203       .  T
C932        C933   1.409       .  S
C933        C934   1.203       .  T
C935        C943   1.432       .  S
C935        C936   1.203       .  T
C936        C937   1.408       .  S
C937        C938   1.204       .  T
C939        N940   1.357       .  A
C939        N944   1.355       .  A
N940        C941   1.357       .  A
C941        N942   1.357       .  A
N942        C943   1.356       .  A
C943        N944   1.355       .  A
C945        N946   1.359       .  A
C945        N950   1.360       .  A
C945       C1052   1.443       .  S
N946        C947   1.358       .  A
C947        N948   1.358       .  A
C947       C1060   1.442       .  S
N948        C949   1.358       .  A
C949        N950   1.360       .  A
C949       C1053   1.441       .  S
C951        N952   1.359       .  A
C951        N956   1.360       .  A
C951       C1048   1.443       .  S
N952        C953   1.358       .  A
C953        N954   1.358       .  A
C953       C1041   1.442       .  S
N954        C955   1.358       .  A
C955        N956   1.360       .  A
C955       C1037   1.441       .  S
C957        N958   1.355       .  A
C957        N962   1.357       .  A
C957       C1033   1.431       .  S
N958        C959   1.355       .  A
C959        N960   1.356       .  A
C959       C1032   1.432       .  S
N960        C961   1.357       .  A
C961        N962   1.357       .  A
C961       C1025   1.432       .  S
O963        C971   1.268       .  A
O964        C972   1.242       .  A
O964       Co984   1.958       .  S
O965        C973   1.262       .  A
O965       Co985   1.977       .  S
O966        C974   1.250       .  A
O966       Co986   1.997       .  S
O967        C973   1.270       .  A
O968       Co983   1.963       .  S
O969        C972   1.252       .  A
O970        C971   1.262       .  A
O970       Co985   1.975       .  S
C971       C1072   1.432       .  S
C972       C1064   1.430       .  S
C973       C1040   1.439       .  S
O975        C988   1.268   1_455  A
O976       Co984   1.978       .  S
O977        C990   1.266   1_545  A
O978        C991   1.298       .  A
O978       Co986   2.083       .  S
O979        C991   1.269   1_545  A
O980        C990   1.256       .  A
O980       Co983   1.988       .  S
O981        C988   1.298       .  A
O981       Co986   2.081       .  S
O982       Co985   2.012       .  S
Co986       O987   2.258   1_665  S
C988       C1068   1.431       .  S
C989       C1021   1.432   1_445  S
C990       C1045   1.441       .  S
C991       C1044   1.441       .  S
O992       C1000   1.269       .  A
O993       C1001   1.256       .  A
O993      Co1013   1.988       .  S
O994       C1002   1.298       .  A
O994      Co1014   2.081       .  S
O995       C1003   1.265       .  A
O995      Co1015   2.012       .  S
O996       C1002   1.268       .  A
O997      Co1012   1.978       .  S
O998       C1001   1.266       .  A
O999       C1000   1.298       .  A
O999      Co1014   2.083       .  S
C1000      C1057   1.441       .  S
C1001      C1049   1.441       .  S
C1002      C1028   1.431       .  S
C1003      C1022   1.432       .  S
O1004      C1017   1.270       .  A
O1005     Co1013   1.963       .  S
O1006      C1019   1.252       .  A
O1007      C1020   1.262       .  A
O1007     Co1015   1.975       .  S
O1008      C1020   1.268       .  A
O1009      C1019   1.242       .  A
O1009     Co1012   1.958       .  S
O1010      C1017   1.262       .  A
O1010     Co1015   1.977       .  S
O1011     Co1014   1.997       .  S
Co1015     O1016   2.094       .  S
C1017      C1056   1.439       .  S
C1018      C1024   1.433   1_445  S
C1019      C1036   1.430       .  S
C1020      C1029   1.432       .  S
C1021      C1022   1.204       .  T
C1023      C1024   1.204       .  T
C1025      C1026   1.203       .  T
C1026      C1027   1.409       .  S
C1027      C1028   1.203       .  T
C1029      C1030   1.204       .  T
C1030      C1031   1.408       .  S
C1031      C1032   1.203       .  T
C1033      C1034   1.203       .  T
C1034      C1035   1.407       .  S
C1035      C1036   1.203       .  T
C1037      C1038   1.209       .  T
C1038      C1039   1.417       .  S
C1039      C1040   1.208       .  T
C1041      C1042   1.209       .  T
C1042      C1043   1.418       .  S
C1043      C1044   1.209       .  T
C1045      C1046   1.210       .  T
C1046      C1047   1.419       .  S
C1047      C1048   1.210       .  T
C1049      C1050   1.210       .  T
C1050      C1051   1.419       .  S
C1051      C1052   1.210       .  T
C1053      C1054   1.209       .  T
C1054      C1055   1.417       .  S
C1055      C1056   1.208       .  T
C1057      C1058   1.209       .  T
C1058      C1059   1.418       .  S
C1059      C1060   1.209       .  T
C1061      C1062   1.203       .  T
C1062      C1063   1.407       .  S
C1063      C1064   1.203       .  T
C1065      C1066   1.203       .  T
C1066      C1067   1.408       .  S
C1067      C1068   1.203       .  T
C1069      C1070   1.203       .  T
C1070      C1071   1.408       .  S
C1071      C1072   1.204       .  T
