geometry optimzed in LAMMPS
_audit_creation_date              2020-12-01 
_audit_creation_method            'lammps2cif' 
_symmetry_space_group_name_H-M    'P1' 
_symmetry_Int_Tables_number       1 
_symmetry_cell_setting            triclinic 
loop_ 
_symmetry_equiv_pos_as_xyz 
  x,y,z 
_cell_length_a                    35.28750269 
_cell_length_b                    36.520479506125 
_cell_length_c                    34.912388808618815 
_cell_angle_alpha                 91.38871613846113 
_cell_angle_beta                  88.41463525958105 
_cell_angle_gamma                 90.12329402044834 
loop_ 
_atom_site_label 
_atom_site_type_symbol 
_atom_site_fract_x 
_atom_site_fract_y 
_atom_site_fract_z 
_atom_site_charge 
O1          O  0.08592258  0.02898643  0.47842528    -0.81400
O2          O  0.41778278  0.46999143  0.49762515    -0.81400
O3          O  0.00500736  0.43624949  0.44151873    -0.81400
O4          O  0.45788861  0.07791044  0.45922105    -0.81400
O5          O  0.46533069  0.41185583  0.49698822    -0.81500
O6          O  0.01979868  0.06435305  0.46381348    -0.81400
O7          O  0.45485211  0.00610095  0.43448320    -0.81400
O8          O  0.05471786  0.49345007  0.43944609    -0.81500
C9          C  0.08079144  0.51508407  0.44884696     1.08300
C10         C  0.42009673  0.48644315  0.46573414     1.08200
C11         C  0.47783145  0.41105361  0.46237996     1.08300
C12         C  0.48789462  0.08534017  0.44056116     1.08200
O13         O  0.04328667  0.07901651  0.03005001    -0.81400
O14         O  0.49697839  0.43825745  0.06781190    -0.81500
O15         O  0.08274255  0.47104197  0.01452882    -0.81400
O16         O  0.41466347  0.02903670  0.00888566    -0.81400
O17         O  0.44630757  0.49527472  0.07130652    -0.81500
O18         O  0.04564465  0.00792222  0.05291297    -0.81400
O19         O  0.48103813  0.06491501  0.02589088    -0.81400
O20         O  0.03526318  0.41275640  0.01249890    -0.81500
Co21       Co  0.03775894  0.03340074  0.51019611     1.51500
Co22       Co  0.45931021  0.45657973  0.03233323     1.51700
Co23       Co  0.04239217  0.45556535  0.47746876     1.51600
Co24       Co  0.46341329  0.03275374  0.97824274     1.51500
O25         O  0.00773449  0.98772706  0.50001645    -1.43400
C26         C  0.01367195  0.08663547  0.04965288     1.08200
C27         C  0.51901374  0.41312268  0.05559429     1.08300
C28         C  0.07300858  0.98676981  0.04355185     1.08200
C29         C  0.42048568  0.51704028  0.06253078     1.08200
C30         C  0.02607859  0.28398767  0.13908863     0.78900
N31         N  0.01906988  0.28713776  0.17738619    -0.79400
C32         C  0.01145970  0.25727786  0.19849772     0.81400
N33         N  0.01002793  0.22351136  0.18090638    -0.79300
C34         C  0.01693846  0.22001767  0.14238952     0.81500
N35         N  0.02520031  0.25031149  0.12181688    -0.81000
C36         C  0.99504527  0.21240960  0.36643412     0.78900
N37         N  0.98772140  0.24553924  0.38318337    -0.79400
C38         C  0.98712151  0.27630124  0.36227702     0.81400
N39         N  0.99351258  0.27350902  0.32355438    -0.79300
C40         C  0.00028374  0.23996594  0.30641562     0.81500
N41         N  0.00133869  0.20972704  0.32809133    -0.81000
C42         C  0.20760742  0.00120242  0.13169100     0.78900
N43         N  0.24135358  0.00549213  0.11270864    -0.79400
C44         C  0.27373109  0.01124314  0.13214542     0.81400
N45         N  0.27217324  0.01232423  0.17116121    -0.79600
C46         C  0.23831229  0.00843847  0.19038538     0.81500
N47         N  0.20626322  0.00306370  0.17051355    -0.81000
C48         C  0.22407048  0.50408414  0.36637638     0.78900
N49         N  0.22739880  0.50415970  0.32752438    -0.79400
C50         C  0.26190853  0.49980945  0.30967585     0.81400
N51         N  0.29313197  0.49517353  0.33090688    -0.79300
C52         C  0.29004529  0.49438369  0.36975365     0.81500
N53         N  0.25547638  0.49901975  0.38725333    -0.81000
C54         C  0.23618541  0.50184959  0.24464964    -0.17700
C55         C  0.26613331  0.50078670  0.26754372    -0.32900
H56         H  0.20759932  0.50131934  0.25703751     0.11300
H57         H  0.29412914  0.00761290  0.24123701     0.11900
C58         C  0.00557136  0.23492245  0.26451941    -0.17700
C59         C  0.00521076  0.26267146  0.24024972    -0.32900
H60         H  0.50450422  0.29095992  0.25066671     0.11300
H61         H  0.00167764  0.29054162  0.25137170     0.11900
C62         C  0.46179569  0.14600970  0.42526505    -0.14600
C63         C  0.99269561  0.11775097  0.43583658     0.07500
C64         C  0.01797492  0.11908584  0.40417140    -0.14600
C65         C  0.01849892  0.14974638  0.38088226    -0.14600
C66         C  0.99451294  0.17960567  0.38980471     0.07500
C67         C  0.46164095  0.17826503  0.40488522    -0.14600
H68         H  0.44181271  0.14346072  0.44917729     0.11500
H69         H  0.03689924  0.09641059  0.39728770     0.11500
H70         H  0.03800272  0.15044043  0.35640463     0.11500
H71         H  0.44148159  0.19942994  0.41354458     0.11500
C72         C  0.46459445  0.34446251  0.45151052    -0.14600
C73         C  0.97819636  0.37811817  0.42721237     0.07500
C74         C  0.99160695  0.37786095  0.38876908    -0.14600
C75         C  0.99269724  0.34521566  0.36667517    -0.14600
C76         C  0.98077673  0.31209082  0.38270761     0.07500
C77         C  0.46621601  0.31339140  0.42727934    -0.14600
H78         H  0.46108835  0.34096285  0.48213022     0.11500
H79         H  0.00269670  0.40263900  0.37621401     0.11500
H80         H  0.00460460  0.34561568  0.33776379     0.11500
H81         H  0.46323389  0.28669087  0.43984617     0.11500
C82         C  0.04488135  0.14369419  0.07309412    -0.14600
C83         C  0.01458102  0.11875607  0.07665014     0.07500
C84         C  0.48555642  0.12029762  0.08910760    -0.14600
C85         C  0.48648363  0.15105687  0.11389833    -0.14600
C86         C  0.01675599  0.18384643  0.12235287     0.07500
C87         C  0.04570856  0.17586941  0.09526466    -0.14600
H88         H  0.06764484  0.13900228  0.05211441     0.11500
H89         H  0.46776444  0.09717770  0.09650639     0.11500
H90         H  0.46907806  0.15130796  0.13994202     0.11500
H91         H  0.06893754  0.19490112  0.09088144     0.11500
C92         C  0.51116060  0.37962226  0.11790260    -0.14600
C93         C  0.03165651  0.38036887  0.07128742     0.07500
C94         C  0.04221101  0.34631158  0.05476747    -0.14600
C95         C  0.04212266  0.31495467  0.07708431    -0.14600
C96         C  0.03182915  0.31730890  0.11629350     0.07500
C97         C  0.51104348  0.34680350  0.13818892    -0.14600
H98         H  0.49892783  0.40390836  0.13163492     0.11500
H99         H  0.04820148  0.34349687  0.02424392     0.11500
H100        H  0.04860888  0.28873334  0.06333366     0.11500
H101        H  0.49869966  0.34659980  0.16692850     0.11500
C102        C  0.36018103  0.49907924  0.37865915    -0.14600
C103        C  0.32401065  0.48941851  0.39298632     0.07500
C104        C  0.32034211  0.47609203  0.43031857    -0.14600
C105        C  0.35200842  0.47336134  0.45320299    -0.14600
C106        C  0.38793238  0.48449925  0.43949696     0.07500
C107        C  0.39179758  0.49698007  0.40182577    -0.14600
H108        H  0.36384717  0.50948801  0.35000417     0.11500
H109        H  0.29287909  0.46816021  0.44202615     0.11500
H110        H  0.34804778  0.46389526  0.48221200     0.11500
H111        H  0.42385287  0.00150595  0.36746771     0.11500
C112        C  0.15289183  0.50168540  0.36738354    -0.14600
C113        C  0.18680695  0.50992509  0.38600635     0.07500
C114        C  0.18497590  0.52315148  0.42411461    -0.14600
C115        C  0.15011658  0.52704459  0.44358731    -0.14600
C116        C  0.11632957  0.51709275  0.42566112     0.07500
C117        C  0.11794387  0.50483770  0.38719989    -0.14600
H118        H  0.15347543  0.49150491  0.33797595     0.11500
H119        H  0.21057834  0.53009076  0.43909818     0.11500
H120        H  0.15700618  0.03925671  0.46566482     0.11500
H121        H  0.09231900  0.49682162  0.37280741     0.11500
C122        C  0.35203092  0.53313327  0.07026845    -0.14600
C123        C  0.38550381  0.52081221  0.08663156     0.07500
C124        C  0.38381499  0.50792029  0.12424034    -0.14600
C125        C  0.34479405  0.00666258  0.12684732    -0.14600
C126        C  0.31014852  0.01565455  0.11056964     0.07500
C127        C  0.31025222  0.02741898  0.07251577    -0.14600
H128        H  0.35234173  0.54305562  0.04126869     0.11500
H129        H  0.40916056  0.49823156  0.13753088     0.11500
H130        H  0.34557240  0.99743264  0.15606392     0.11500
H131        H  0.28404594  0.03478056  0.05924724     0.11500
C132        C  0.10406195  0.99778507  0.10633058    -0.14600
C133        C  0.10641973  0.98573917  0.06787052     0.07500
C134        C  0.14203623  0.97673333  0.05128935    -0.14600
C135        C  0.17486802  0.98137135  0.07219226    -0.14600
C136        C  0.17268416  0.99451370  0.11029734     0.07500
C137        C  0.13690820  0.00180236  0.12749209    -0.14600
H138        H  0.07695147  0.00497043  0.11971710     0.11500
H139        H  0.14476332  0.96771141  0.02155062     0.11500
H140        H  0.20200374  0.97513188  0.05833275     0.11500
H141        H  0.13438054  0.01184957  0.15689117     0.11500
O142        O  0.07101562  0.03001877  0.97965818    -0.81400
O143        O  0.41796148  0.47055675  0.99647524    -0.81400
O144        O  0.00354165  0.43781738  0.94191514    -0.81400
O145        O  0.44511712  0.07736371  0.96042038    -0.81400
O146        O  0.46579547  0.41266710  0.99594457    -0.81500
O147        O  0.00616511  0.06639178  0.96464210    -0.81400
O148        O  0.44027613  0.00610157  0.93456480    -0.81400
O149        O  0.05357051  0.49446023  0.94033160    -0.81500
C150        C  0.07996857  0.51573557  0.94960372     1.08300
C151        C  0.41984635  0.48667602  0.96438553     1.08200
C152        C  0.47839435  0.41132156  0.96137220     1.08300
C153        C  0.47551793  0.08396618  0.94187625     1.08200
O154        O  0.05637385  0.07843682  0.52939286    -0.81400
O155        O  0.49600047  0.43671276  0.56938921    -0.81500
O156        O  0.08333898  0.47094836  0.51403232    -0.81400
O157        O  0.42922414  0.03039364  0.50754811    -0.81400
O158        O  0.44578231  0.49382911  0.57294220    -0.81500
O159        O  0.06123822  0.00756185  0.55275073    -0.81400
O160        O  0.49449128  0.06641792  0.52460859    -0.81400
O161        O  0.03669827  0.41225797  0.51242485    -0.81500
Co162      Co  0.02319179  0.03479851  0.01095399     1.51500
Co163      Co  0.45877887  0.45545931  0.53375383     1.51700
Co164      Co  0.04122071  0.45637164  0.97802826     1.51600
Co165      Co  0.47742454  0.03390389  0.47714222     1.51500
O166        O  0.99308814  0.98951832  0.00055780    -1.43400
C167        C  0.02647708  0.08508310  0.54909995     1.08200
C168        C  0.51855074  0.41196295  0.55729078     1.08300
C169        C  0.08864964  0.98624514  0.54389507     1.08200
C170        C  0.42002467  0.51561481  0.56414966     1.08200
C171        C  0.02780937  0.28297613  0.63880627     0.78900
N172        N  0.01893248  0.28625816  0.67672379    -0.79400
C173        C  0.01219576  0.25638927  0.69807101     0.81400
N174        N  0.01365800  0.22227428  0.68101335    -0.79300
C175        C  0.02256841  0.21857128  0.64279413     0.81500
N176        N  0.02976498  0.24904496  0.62208875    -0.81000
C177        C  0.98590195  0.21391330  0.86592547     0.78900
N178        N  0.97959397  0.24738826  0.88229828    -0.79400
C179        C  0.98184887  0.27815668  0.86135590     0.81400
N180        N  0.99008773  0.27497525  0.82289266    -0.79300
C181        C  0.99583215  0.24103906  0.80612914     0.81500
N182        N  0.99410875  0.21089572  0.82794387    -0.81000
C183        C  0.22490518  0.99383455  0.63291869     0.78900
N184        N  0.25726441  0.00053641  0.61217007    -0.79400
C185        C  0.29082983  0.00513624  0.62969551     0.81400
N186        N  0.29211361  0.00252559  0.66810020    -0.79600
C187        C  0.26051638  0.99590045  0.68937041     0.81500
N188        N  0.22648403  0.99178217  0.67189277    -0.81000
C189        C  0.22293279  0.50499959  0.86653798     0.78900
N190        N  0.22615088  0.50433657  0.82768770    -0.79400
C191        C  0.26062788  0.49971787  0.80987583     0.81400
N192        N  0.29187468  0.49538320  0.83109436    -0.79300
C193        C  0.28891905  0.49531012  0.86995417     0.81500
N194        N  0.25439014  0.50040010  0.88745766    -0.81000
C195        C  0.23482707  0.50020027  0.74495791    -0.17700
C196        C  0.26480803  0.50002154  0.76779688    -0.32900
H197        H  0.20625259  0.49933482  0.75734846     0.11300
H198        H  0.20730785  0.98782570  0.74494520     0.11900
C199        C  0.00350726  0.23531915  0.76454284    -0.17700
C200        C  0.00368806  0.26240899  0.73949074    -0.32900
H201        H  0.50410624  0.28937178  0.75232707     0.11300
H202        H  0.99868970  0.29035770  0.74976564     0.11900
C203        C  0.45088962  0.14490533  0.92473308    -0.14600
C204        C  0.97968343  0.11965546  0.93591590     0.07500
C205        C  0.00575779  0.12051221  0.90489234    -0.14600
C206        C  0.00730898  0.15095808  0.88137740    -0.14600
C207        C  0.98354016  0.18116504  0.88936205     0.07500
C208        C  0.45252574  0.17716439  0.90426610    -0.14600
H209        H  0.42990316  0.14288745  0.94782620     0.11500
H210        H  0.02469120  0.09767762  0.89877150     0.11500
H211        H  0.02760734  0.15128120  0.85754239     0.11500
H212        H  0.43271001  0.19889972  0.91203184     0.11500
C213        C  0.46392290  0.34470698  0.95159108    -0.14600
C214        C  0.97585951  0.38019159  0.92669597     0.07500
C215        C  0.99069787  0.37949610  0.88871388    -0.14600
C216        C  0.99099449  0.34690984  0.86640255    -0.14600
C217        C  0.97672127  0.31426912  0.88171091     0.07500
C218        C  0.46499635  0.31320108  0.92791541    -0.14600
H219        H  0.45959123  0.34182613  0.98221018     0.11500
H220        H  0.00351823  0.40379446  0.87674837     0.11500
H221        H  0.00402021  0.34690112  0.83795056     0.11500
H222        H  0.46079056  0.28679115  0.94082527     0.11500
C223        C  0.05469191  0.14385049  0.57269608    -0.14600
C224        C  0.02615598  0.11708807  0.57653507     0.07500
C225        C  0.49870263  0.11941709  0.58913372    -0.14600
C226        C  0.49827755  0.14966746  0.61455864    -0.14600
C227        C  0.02494100  0.18213016  0.62294707     0.07500
C228        C  0.05384572  0.17595725  0.59520357    -0.14600
H229        H  0.07720013  0.14066400  0.55115524     0.11500
H230        H  0.48180953  0.09552075  0.59593894     0.11500
H231        H  0.48073893  0.14871327  0.64046602     0.11500
H232        H  0.07562333  0.19643090  0.59042436     0.11500
C233        C  0.51039498  0.37849154  0.61952118    -0.14600
C234        C  0.03262405  0.37960234  0.57096434     0.07500
C235        C  0.04159416  0.34529814  0.55404489    -0.14600
C236        C  0.04157756  0.31388061  0.57625678    -0.14600
C237        C  0.03292262  0.31632906  0.61581096     0.07500
C238        C  0.51166061  0.34590851  0.64008254    -0.14600
H239        H  0.49564599  0.40187722  0.63238747     0.11500
H240        H  0.04634760  0.34240434  0.52333790     0.11500
H241        H  0.04687146  0.28757051  0.56218428     0.11500
H242        H  0.49777195  0.34497359  0.66809274     0.11500
C243        C  0.35958896  0.49454619  0.87697185    -0.14600
C244        C  0.32293511  0.49008159  0.89310804     0.07500
C245        C  0.31896487  0.48135557  0.93198730    -0.14600
C246        C  0.35079611  0.47827765  0.95451521    -0.14600
C247        C  0.38726166  0.48447737  0.93885600     0.07500
C248        C  0.39146556  0.49214119  0.89975566    -0.14600
H249        H  0.36360211  0.50110857  0.84704573     0.11500
H250        H  0.29118914  0.47739517  0.94521438     0.11500
H251        H  0.34669714  0.47266117  0.98468200     0.11500
H252        H  0.40715244  0.00655046  0.86739532     0.11500
C253        C  0.15205340  0.49933645  0.86864272    -0.14600
C254        C  0.18565740  0.51074019  0.88606889     0.07500
C255        C  0.18355087  0.52687970  0.92296095    -0.14600
C256        C  0.14870130  0.53062830  0.94252519    -0.14600
C257        C  0.11526180  0.51764728  0.92593402     0.07500
C258        C  0.11717187  0.50240476  0.88857073    -0.14600
H259        H  0.15292327  0.48676464  0.84021032     0.11500
H260        H  0.20896408  0.53623309  0.93691373     0.11500
H261        H  0.14271498  0.03446361  0.96874466     0.11500
H262        H  0.09189112  0.49193996  0.87520109     0.11500
C263        C  0.35128073  0.53066148  0.57101474    -0.14600
C264        C  0.38467808  0.51864646  0.58773173     0.07500
C265        C  0.38270725  0.50541350  0.62519951    -0.14600
C266        C  0.36130697  0.00797589  0.62490740    -0.14600
C267        C  0.32607551  0.01204531  0.60758695     0.07500
C268        C  0.32506982  0.02192864  0.56907128    -0.14600
H269        H  0.35180461  0.54065457  0.54204025     0.11500
H270        H  0.40797788  0.49579391  0.63868026     0.11500
H271        H  0.36301533  0.00054945  0.65465356     0.11500
H272        H  0.29834475  0.02559528  0.55514868     0.11500
C273        C  0.12061112  0.99761739  0.60716936    -0.14600
C274        C  0.12211990  0.98465311  0.56882407     0.07500
C275        C  0.15716596  0.97277826  0.55300221    -0.14600
C276        C  0.19004997  0.97508539  0.57429712    -0.14600
C277        C  0.18885618  0.98870343  0.61232494     0.07500
C278        C  0.15362640  0.99920157  0.62888368    -0.14600
H279        H  0.09407046  0.00711100  0.62012378     0.11500
H280        H  0.15954674  0.96296142  0.52350485     0.11500
H281        H  0.21667541  0.96659908  0.56071042     0.11500
H282        H  0.15186549  0.00998103  0.65804757     0.11500
O283        O  0.07832193  0.53070157  0.48137317    -0.81400
O284        O  0.42598362  0.96911183  0.47546704    -0.81400
O285        O  0.01061471  0.93533475  0.43896696    -0.81400
O286        O  0.45301358  0.57885009  0.48325149    -0.81400
O287        O  0.47435148  0.91202424  0.47701441    -0.81500
O288        O  0.01066571  0.56410637  0.46532486    -0.81400
O289        O  0.44785988  0.50740955  0.45810885    -0.81400
O290        O  0.06191918  0.99135000  0.43672707    -0.81500
C291        C  0.08777322  0.01352148  0.44563993     1.08300
C292        C  0.42740446  0.98508300  0.44324838     1.08200
C293        C  0.48773948  0.90897411  0.44276645     1.08300
C294        C  0.48248207  0.58339827  0.46253433     1.08200
O295        O  0.04845293  0.58023945  0.03146586    -0.81400
O296        O  0.48941135  0.93781651  0.04798138    -0.81500
O297        O  0.07423448  0.97004129  0.01098696    -0.81400
O298        O  0.42273610  0.53169806  0.03020891    -0.81400
O299        O  0.43885830  0.99330342  0.05004397    -0.81500
O300        O  0.05363061  0.50950760  0.05565570    -0.81400
O301        O  0.48988374  0.56726438  0.04578374    -0.81400
O302        O  0.02544544  0.91350143  0.01054046    -0.81500
Co303      Co  0.02991651  0.53432351  0.51212533     1.51500
Co304      Co  0.45256409  0.95484193  0.01129226     1.51700
Co305      Co  0.04803402  0.95429699  0.47530393     1.51600
Co306      Co  0.47082802  0.53490833  0.99898529     1.51500
O307        O  0.00160535  0.48759176  0.50332693    -1.43400
C308        C  0.01919173  0.58689857  0.05197350     1.08200
C309        C  0.51212318  0.91270630  0.03755714     1.08300
C310        C  0.08111217  0.48823456  0.04692310     1.08200
C311        C  0.41275460  0.01462908  0.04137424     1.08200
C312        C  0.02163305  0.78663462  0.13924215     0.78900
N313        N  0.01509446  0.78910497  0.17771667    -0.79400
C314        C  0.00994374  0.75853544  0.19859983     0.81400
N315        N  0.01058656  0.72493392  0.18060602    -0.79300
C316        C  0.01715138  0.72214056  0.14201985     0.81500
N317        N  0.02282427  0.75306573  0.12172184    -0.81000
C318        C  0.98419370  0.71063231  0.36535095     0.78900
N319        N  0.97905929  0.74417017  0.38229624    -0.79400
C320        C  0.98227167  0.77515468  0.36166529     0.81400
N321        N  0.99019908  0.77223492  0.32328065    -0.79300
C322        C  0.99472256  0.73860059  0.30586449     0.81500
N323        N  0.99213578  0.70802835  0.32714518    -0.81000
C324        C  0.21213451  0.49903929  0.14208737     0.78900
N325        N  0.24658657  0.50495557  0.12497883    -0.79400
C326        C  0.27796038  0.50992281  0.14624997     0.81400
N327        N  0.27473595  0.50852778  0.18506405    -0.79600
C328        C  0.24033753  0.50292462  0.20252480     0.81500
N329        N  0.20916789  0.49842445  0.18094623    -0.81000
C330        C  0.22708672  0.00994100  0.35484644     0.78900
N331        N  0.22892937  0.01127536  0.31591919    -0.79400
C332        C  0.26284185  0.00720312  0.29666266     0.81400
N333        N  0.29468886  0.00132153  0.31641079    -0.79300
C334        C  0.29310322  0.99923577  0.35513962     0.81500
N335        N  0.25927665  0.00378711  0.37418064    -0.81000
C336        C  0.23542642  0.00936185  0.23257623    -0.17700
C337        C  0.26592260  0.00858753  0.25453089    -0.32900
H338        H  0.20720293  0.00920625  0.24584592     0.11300
H339        H  0.29470319  0.50024740  0.25509502     0.11900
C340        C  0.00186582  0.73432040  0.26403455    -0.17700
C341        C  0.00346848  0.76283149  0.24051024    -0.32900
H342        H  0.50662399  0.70510537  0.24735731     0.11300
H343        H  0.00027663  0.79049542  0.25230936     0.11900
C344        C  0.45787908  0.64263448  0.44007112    -0.14600
C345        C  0.98126953  0.61624601  0.43646172     0.07500
C346        C  0.00506399  0.61666687  0.40358588    -0.14600
C347        C  0.00508124  0.64686492  0.37955281    -0.14600
C348        C  0.98213515  0.67746631  0.38870232     0.07500
C349        C  0.45921331  0.67245679  0.41592053    -0.14600
H350        H  0.43766164  0.64320173  0.46399663     0.11500
H351        H  0.02358980  0.59373192  0.39652842     0.11500
H352        H  0.02389398  0.64679728  0.35451114     0.11500
H353        H  0.43990481  0.69507486  0.42167691     0.11500
C354        C  0.46814786  0.84314383  0.43745132    -0.14600
C355        C  0.98107131  0.87820350  0.42494170     0.07500
C356        C  0.99626808  0.87607556  0.38720851    -0.14600
C357        C  0.99508822  0.84310775  0.36576107    -0.14600
C358        C  0.97904790  0.81147447  0.38173872     0.07500
C359        C  0.46795758  0.80961665  0.41720789    -0.14600
H360        H  0.46011295  0.84362218  0.46762850     0.11500
H361        H  0.01036315  0.89950309  0.37475913     0.11500
H362        H  0.00829444  0.84198023  0.33738457     0.11500
H363        H  0.45927126  0.78529279  0.43227997     0.11500
C364        C  0.04363514  0.64891938  0.06818892    -0.14600
C365        C  0.01892112  0.62000718  0.07745929     0.07500
C366        C  0.49545646  0.62546947  0.10586886    -0.14600
C367        C  0.49605902  0.65780604  0.12846958    -0.14600
C368        C  0.01848824  0.68612207  0.12153670     0.07500
C369        C  0.04313198  0.68157309  0.08961780    -0.14600
H370        H  0.06285040  0.64673678  0.04349992     0.11500
H371        H  0.47638169  0.60348921  0.11383026     0.11500
H372        H  0.47708459  0.66043225  0.15329385     0.11500
H373        H  0.06208015  0.70346725  0.08106182     0.11500
C374        C  0.50587925  0.88490873  0.10260592    -0.14600
C375        C  0.02156877  0.88257608  0.07020666     0.07500
C376        C  0.03436282  0.84894728  0.05443212    -0.14600
C377        C  0.03582178  0.81799944  0.07718899    -0.14600
C378        C  0.02488831  0.82018215  0.11625011     0.07500
C379        C  0.50736517  0.85462454  0.12641124    -0.14600
H380        H  0.49371701  0.91018660  0.11414297     0.11500
H381        H  0.04128034  0.84605504  0.02409162     0.11500
H382        H  0.04431450  0.79210875  0.06386380     0.11500
H383        H  0.49628923  0.85734462  0.15557636     0.11500
C384        C  0.36387185  0.99878679  0.35945988    -0.14600
C385        C  0.32792342  0.99226769  0.37636152     0.07500
C386        C  0.32550713  0.97979328  0.41407195    -0.14600
C387        C  0.35824902  0.97520130  0.43493067    -0.14600
C388        C  0.39404150  0.98355986  0.41872579     0.07500
C389        C  0.39662418  0.99481142  0.38058572    -0.14600
H390        H  0.36663843  0.00828188  0.33036556     0.11500
H391        H  0.29825711  0.97414066  0.42771319     0.11500
H392        H  0.35532653  0.96681497  0.46442218     0.11500
H393        H  0.41911773  0.50582385  0.39054639     0.11500
C394        C  0.15609973  0.00394710  0.35998220    -0.14600
C395        C  0.19050810  0.01453505  0.37634402     0.07500
C396        C  0.19002502  0.02802647  0.41439487    -0.14600
C397        C  0.15613431  0.02979741  0.43605105    -0.14600
C398        C  0.12200604  0.01741167  0.42043923     0.07500
C399        C  0.12221728  0.00497053  0.38196777    -0.14600
H400        H  0.15563583  0.99340114  0.33073184     0.11500
H401        H  0.21604104  0.03668293  0.42767505     0.11500
H402        H  0.14982328  0.53619518  0.47334944     0.11500
H403        H  0.09637410  0.99513426  0.36920417     0.11500
C404        C  0.34403630  0.02913908  0.05082010    -0.14600
C405        C  0.37843473  0.01852130  0.06644503     0.07500
C406        C  0.37859094  0.00770244  0.10484320    -0.14600
C407        C  0.34903453  0.50591009  0.14442824    -0.14600
C408        C  0.31528022  0.51601978  0.12702675     0.07500
C409        C  0.31727511  0.53044462  0.09010298    -0.14600
H410        H  0.34293776  0.03720323  0.02121304     0.11500
H411        H  0.40469860  0.99918485  0.11754956     0.11500
H412        H  0.34834672  0.49482189  0.17293179     0.11500
H413        H  0.29180310  0.53890714  0.07616130     0.11500
C414        C  0.10986181  0.49759575  0.11129286    -0.14600
C415        C  0.11381537  0.48696742  0.07245519     0.07500
C416        C  0.15013479  0.47860567  0.05719279    -0.14600
C417        C  0.18200826  0.48219488  0.07990553    -0.14600
C418        C  0.17817836  0.49358648  0.11856105     0.07500
C419        C  0.14168670  0.50048691  0.13422719    -0.14600
H420        H  0.08222271  0.50429863  0.12375184     0.11500
H421        H  0.15412551  0.47073124  0.02723592     0.11500
H422        H  0.20970663  0.47638497  0.06708472     0.11500
H423        H  0.13782602  0.50929683  0.16391965     0.11500
O424        O  0.07789635  0.53118936  0.98223575    -0.81400
O425        O  0.41150640  0.96807845  0.97430456    -0.81400
O426        O  0.99454120  0.93789493  0.93896567    -0.81400
O427        O  0.45220961  0.57953424  0.98096977    -0.81400
O428        O  0.46050731  0.91084471  0.97538275    -0.81500
O429        O  0.01031889  0.56514117  0.96702001    -0.81400
O430        O  0.44732016  0.50781257  0.95617846    -0.81400
O431        O  0.04506796  0.99425489  0.93762668    -0.81500
C432        C  0.07203341  0.01488201  0.94686912     1.08300
C433        C  0.41282672  0.98474783  0.94243398     1.08200
C434        C  0.47503044  0.90840115  0.94155565     1.08300
C435        C  0.48132482  0.58426113  0.95982102     1.08200
O436        O  0.04837333  0.57980516  0.53009031    -0.81400
O437        O  0.50511875  0.94062507  0.54812866    -0.81500
O438        O  0.08968376  0.96898234  0.51156044    -0.81400
O439        O  0.42270489  0.53081989  0.53212412    -0.81400
O440        O  0.45471436  0.99648938  0.54954367    -0.81500
O441        O  0.05346707  0.50929213  0.55473842    -0.81400
O442        O  0.48991621  0.56624730  0.54827538    -0.81400
O443        O  0.04027192  0.91187732  0.51142139    -0.81500
Co444      Co  0.02970897  0.53491685  0.01344242     1.51500
Co445      Co  0.46733289  0.95677670  0.51203402     1.51700
Co446      Co  0.03245561  0.95619911  0.97496237     1.51600
Co447      Co  0.47110307  0.53406679  0.50129353     1.51500
O448        O  0.00079589  0.48849696  0.00452032    -1.43400
C449        C  0.01929231  0.58602162  0.55099583     1.08200
C450        C  0.52699178  0.91489000  0.53749170     1.08300
C451        C  0.08108833  0.48810322  0.54639116     1.08200
C452        C  0.42810231  0.01699474  0.54036695     1.08200
C453        C  0.02409478  0.78433108  0.64008270     0.78900
N454        N  0.01529712  0.78743388  0.67815067    -0.79400
C455        C  0.00798549  0.75729073  0.69919672     0.81400
N456        N  0.00879601  0.72340798  0.68168036    -0.79300
C457        C  0.01756154  0.71997154  0.64346963     0.81500
N458        N  0.02530662  0.75051265  0.62312529    -0.81000
C459        C  0.98234762  0.71199119  0.86718460     0.78900
N460        N  0.97519377  0.74541627  0.88353816    -0.79400
C461        C  0.97623421  0.77617037  0.86241731     0.81400
N462        N  0.98409906  0.77308229  0.82394363    -0.79300
C463        C  0.99067329  0.73941680  0.80707291     0.81500
N464        N  0.99014402  0.70916969  0.82897189    -0.81000
C465        C  0.21086237  0.49835254  0.64251867     0.78900
N466        N  0.24540653  0.50376965  0.62547669    -0.79400
C467        C  0.27683393  0.50789845  0.64673397     0.81400
N468        N  0.27355007  0.50628377  0.68550583    -0.79600
C469        C  0.23902681  0.50123059  0.70290665     0.81500
N470        N  0.20779333  0.49744818  0.68133147    -0.81000
C471        C  0.21003817  0.00019504  0.85774007     0.78900
N472        N  0.20859638  0.99726026  0.81921749    -0.79400
C473        C  0.24032843  0.99197982  0.79746544     0.81400
N474        N  0.27460085  0.98921650  0.81457423    -0.79300
C475        C  0.27634255  0.99129515  0.85363907     0.81500
N476        N  0.24387422  0.99700045  0.87489017    -0.81000
C477        C  0.26498194  0.99382471  0.73106798    -0.17700
C478        C  0.23587687  0.99001099  0.75565360    -0.32900
H479        H  0.29338464  0.99713047  0.74195022     0.11300
H480        H  0.29338675  0.49988665  0.75536496     0.11900
C481        C  0.99809802  0.73450238  0.76521895    -0.17700
C482        C  0.99961815  0.76240339  0.74087700    -0.32900
H483        H  0.50524385  0.70668691  0.74502344     0.11300
H484        H  0.99574103  0.79024586  0.75194622     0.11900
C485        C  0.45538631  0.64295445  0.93725657    -0.14600
C486        C  0.98134900  0.61784551  0.93874905     0.07500
C487        C  0.00616520  0.61911711  0.90666055    -0.14600
C488        C  0.00593559  0.64935971  0.88266469    -0.14600
C489        C  0.98164591  0.67914563  0.89106357     0.07500
C490        C  0.45600396  0.67270442  0.91300560    -0.14600
H491        H  0.43510204  0.64312919  0.96112270     0.11500
H492        H  0.02554356  0.59673765  0.90007658     0.11500
H493        H  0.02533976  0.64987279  0.85810128     0.11500
H494        H  0.43611354  0.69486755  0.91865977     0.11500
C495        C  0.45567293  0.84268153  0.93406745    -0.14600
C496        C  0.96784345  0.87947428  0.92527604     0.07500
C497        C  0.98248947  0.87816668  0.88726915    -0.14600
C498        C  0.98358779  0.84505362  0.86592792    -0.14600
C499        C  0.97044145  0.81243128  0.88226298     0.07500
C500        C  0.45724799  0.80937984  0.91344985    -0.14600
H501        H  0.44560166  0.84276616  0.96365916     0.11500
H502        H  0.99446776  0.90247368  0.87450029     0.11500
H503        H  0.99633426  0.84470937  0.83734599     0.11500
H504        H  0.44779808  0.78478728  0.92758835     0.11500
C505        C  0.04617562  0.64625209  0.57091460    -0.14600
C506        C  0.01947912  0.61834004  0.57774663     0.07500
C507        C  0.49656710  0.62573529  0.60793119    -0.14600
C508        C  0.49713640  0.65887045  0.62922359    -0.14600
C509        C  0.01929189  0.68371394  0.62329818     0.07500
C510        C  0.04583145  0.67850035  0.59304599    -0.14600
H511        H  0.06679333  0.64376857  0.54742967     0.11500
H512        H  0.47925943  0.60322979  0.61802830     0.11500
H513        H  0.47995031  0.66148439  0.65532513     0.11500
H514        H  0.06620691  0.69973021  0.58610869     0.11500
C515        C  0.51999654  0.88742121  0.60248491    -0.14600
C516        C  0.03314977  0.88021221  0.57068974     0.07500
C517        C  0.04250500  0.84555742  0.55489651    -0.14600
C518        C  0.04096782  0.81450900  0.57771078    -0.14600
C519        C  0.03038080  0.81754354  0.61686682     0.07500
C520        C  0.51899932  0.85688026  0.62597324    -0.14600
H521        H  0.50951332  0.91332634  0.61417312     0.11500
H522        H  0.04882257  0.84211244  0.52448664     0.11500
H523        H  0.04675526  0.78798322  0.56431924     0.11500
H524        H  0.50783336  0.86008526  0.65506128     0.11500
C525        C  0.34769430  0.99783741  0.85800885    -0.14600
C526        C  0.31259531  0.98651963  0.87380209     0.07500
C527        C  0.31171084  0.97194183  0.91071351    -0.14600
C528        C  0.34465386  0.96967993  0.93182640    -0.14600
C529        C  0.37951681  0.98258407  0.91704448     0.07500
C530        C  0.38078689  0.99630169  0.87961625    -0.14600
H531        H  0.34927210  0.00923058  0.82965313     0.11500
H532        H  0.28524680  0.96265325  0.92362066     0.11500
H533        H  0.34239791  0.95914226  0.96053857     0.11500
H534        H  0.41930836  0.49698672  0.88703293     0.11500
C535        C  0.13967885  0.99861857  0.86350071    -0.14600
C536        C  0.17468746  0.00635208  0.88022015     0.07500
C537        C  0.17532881  0.01999800  0.91808858    -0.14600
C538        C  0.14148534  0.02503773  0.93913961    -0.14600
C539        C  0.10664626  0.01598902  0.92275339     0.07500
C540        C  0.10598530  0.00318955  0.88465189    -0.14600
H541        H  0.13829765  0.98803137  0.83432226     0.11500
H542        H  0.20191104  0.02645026  0.93149947     0.11500
H543        H  0.14822946  0.54218891  0.97140602     0.11500
H544        H  0.07949372  0.99576441  0.87154381     0.11500
C545        C  0.35872571  0.02620110  0.54783081    -0.14600
C546        C  0.39376676  0.02004746  0.56466231     0.07500
C547        C  0.39488356  0.01168582  0.60352157    -0.14600
C548        C  0.34780171  0.50320728  0.64508781    -0.14600
C549        C  0.31420489  0.51347601  0.62752570     0.07500
C550        C  0.31640118  0.52780361  0.59055881    -0.14600
H551        H  0.35723127  0.03231403  0.51769622     0.11500
H552        H  0.42163777  0.00678152  0.61698439     0.11500
H553        H  0.34692608  0.49205518  0.67356359     0.11500
H554        H  0.29102576  0.53624595  0.57643260     0.11500
C555        C  0.10887556  0.49691117  0.61119187    -0.14600
C556        C  0.11334741  0.48690513  0.57224365     0.07500
C557        C  0.14979218  0.47909945  0.55710168    -0.14600
C558        C  0.18135987  0.48258164  0.58007143    -0.14600
C559        C  0.17709113  0.49331055  0.61885230     0.07500
C560        C  0.14046916  0.49971727  0.63441960    -0.14600
H561        H  0.08105177  0.50314040  0.62348694     0.11500
H562        H  0.15411647  0.47172099  0.52705414     0.11500
H563        H  0.20917531  0.47715394  0.56733845     0.11500
H564        H  0.13633486  0.50798759  0.66424019     0.11500
O565        O  0.58377087  0.03011111  0.46431789    -0.81400
O566        O  0.92063651  0.46803030  0.49152159    -0.81400
O567        O  0.50041334  0.43535198  0.45066655    -0.81400
O568        O  0.96104478  0.08034536  0.48021171    -0.81400
O569        O  0.97030579  0.41126576  0.48720652    -0.81500
O570        O  0.51740857  0.06463759  0.44446572    -0.81400
O571        O  0.95585325  0.01097633  0.44875097    -0.81400
O572        O  0.55372419  0.48909065  0.44519757    -0.81500
C573        C  0.58002519  0.51102314  0.45344387     1.08300
C574        C  0.92165953  0.48677064  0.46108276     1.08200
C575        C  0.98350744  0.41081762  0.45276293     1.08300
C576        C  0.99116803  0.08621363  0.46100446     1.08200
O577        O  0.54024958  0.08000137  0.01101041    -0.81400
O578        O  0.99997388  0.43547041  0.06026273    -0.81500
O579        O  0.58092311  0.47109952  0.01866147    -0.81400
O580        O  0.91636375  0.03236554  0.02380732    -0.81400
O581        O  0.94670960  0.48932377  0.06909016    -0.81500
O582        O  0.54480010  0.01094311  0.04010836    -0.81400
O583        O  0.98374010  0.06631486  0.04496942    -0.81400
O584        O  0.53225706  0.41351726  0.02118953    -0.81500
Co585      Co  0.53514115  0.03604393  0.49334955     1.51500
Co586      Co  0.96115683  0.45412131  0.02689139     1.51700
Co587      Co  0.53904683  0.45369963  0.48540608     1.51600
Co588      Co  0.96536709  0.03694177  0.99531368     1.51500
O589        O  0.50697671  0.98861678  0.48656673    -1.43400
C590        C  0.50985463  0.08674036  0.02972862     1.08200
C591        C  0.02302629  0.41168979  0.04710858     1.08300
C592        C  0.57232026  0.98890729  0.03409921     1.08200
C593        C  0.92076965  0.51166575  0.06212014     1.08200
C594        C  0.51894243  0.27793543  0.13867198     0.78900
N595        N  0.51386180  0.27456116  0.17736894    -0.79400
C596        C  0.50782669  0.24076183  0.19254864     0.81400
N597        N  0.50604100  0.21081049  0.16889159    -0.79300
C598        C  0.51083707  0.21398338  0.13048605     0.81500
N599        N  0.51758367  0.24743550  0.11572459    -0.81000
C600        C  0.48810807  0.21973874  0.35569975     0.78900
N601        N  0.48024063  0.25004692  0.37781493    -0.79400
C602        C  0.48007846  0.28384520  0.36263035     0.81400
N603        N  0.48767715  0.28723956  0.32457623    -0.79300
C604        C  0.49519497  0.25737013  0.30178137     0.81500
N605        N  0.49567119  0.22341033  0.31744686    -0.81000
C606        C  0.70279139  0.99628258  0.13256751     0.78900
N607        N  0.73685155  0.00132687  0.11414046    -0.79400
C608        C  0.76921466  0.00451881  0.13411371     0.81400
N609        N  0.76756206  0.00229201  0.17264105    -0.79600
C610        C  0.73418857  0.99743335  0.19173643     0.81500
N611        N  0.70147447  0.99467881  0.17170593    -0.81000
C612        C  0.72230648  0.50570812  0.36759627     0.78900
N613        N  0.72521988  0.50597345  0.32866261    -0.79400
C614        C  0.75979160  0.50272841  0.31056930     0.81400
N615        N  0.79121913  0.49879336  0.33145686    -0.79300
C616        C  0.78863774  0.49784496  0.37020577     0.81500
N617        N  0.75413042  0.50154034  0.38814928    -0.81000
C618        C  0.73464641  0.50403748  0.24539398    -0.17700
C619        C  0.76423977  0.50348513  0.26854599    -0.32900
H620        H  0.70594406  0.50380125  0.25750206     0.11300
H621        H  0.79402438  0.99530561  0.23880465     0.11900
C622        C  0.50200265  0.26295210  0.26026136    -0.17700
C623        C  0.50318293  0.23529412  0.23433185    -0.32900
H624        H  0.01007480  0.20718319  0.25336091     0.11300
H625        H  0.49977158  0.20735311  0.24389938     0.11900
C626        C  0.96851554  0.14749516  0.44426525    -0.14600
C627        C  0.48802985  0.11803291  0.41605261     0.07500
C628        C  0.51371893  0.12284457  0.38501752    -0.14600
C629        C  0.51296588  0.15523564  0.36377988    -0.14600
C630        C  0.48725824  0.18350601  0.37409067     0.07500
C631        C  0.96968623  0.17825721  0.42170606    -0.14600
H632        H  0.94900216  0.14724303  0.46876877     0.11500
H633        H  0.53426847  0.10176256  0.37732299     0.11500
H634        H  0.53325516  0.15874326  0.34031584     0.11500
H635        H  0.95081092  0.20088584  0.42898255     0.11500
C636        C  0.96406248  0.34538864  0.44232040    -0.14600
C637        C  0.47053656  0.37939769  0.43659366     0.07500
C638        C  0.47548758  0.38294220  0.39679509    -0.14600
C639        C  0.47679115  0.35198530  0.37256044    -0.14600
C640        C  0.47351648  0.31675738  0.38765329     0.07500
C641        C  0.96544918  0.31283264  0.42043186    -0.14600
H642        H  0.95365962  0.34448272  0.47176459     0.11500
H643        H  0.48000236  0.40963277  0.38456432     0.11500
H644        H  0.48201141  0.35567360  0.34218695     0.11500
H645        H  0.95558829  0.28789855  0.43363406     0.11500
C646        C  0.53112285  0.14957697  0.04657746    -0.14600
C647        C  0.50842320  0.11917128  0.05559124     0.07500
C648        C  0.98562406  0.12633296  0.10423268    -0.14600
C649        C  0.98697383  0.15851953  0.12732161    -0.14600
C650        C  0.50942124  0.18137807  0.10480923     0.07500
C651        C  0.53130090  0.18049105  0.07068674    -0.14600
H652        H  0.54869774  0.14951787  0.02063125     0.11500
H653        H  0.96188291  0.10774161  0.10757133     0.11500
H654        H  0.96409501  0.16434300  0.14786558     0.11500
H655        H  0.54919529  0.20345772  0.06299279     0.11500
C656        C  0.02399805  0.38303605  0.11091785    -0.14600
C657        C  0.52508777  0.38057368  0.07966689     0.07500
C658        C  0.54072277  0.34841447  0.06304678    -0.14600
C659        C  0.54021361  0.31569772  0.08307134    -0.14600
C660        C  0.52440233  0.31416051  0.12048403     0.07500
C661        C  0.02423229  0.35192411  0.13318593    -0.14600
H662        H  0.01607880  0.40900244  0.12447889     0.11500
H663        H  0.55164894  0.34799297  0.03374288     0.11500
H664        H  0.55116651  0.29119158  0.06864300     0.11500
H665        H  0.01654747  0.35487623  0.16334364     0.11500
C666        C  0.85921066  0.50038675  0.37633679    -0.14600
C667        C  0.82314929  0.49277768  0.39249265     0.07500
C668        C  0.82033924  0.48053860  0.43024943    -0.14600
C669        C  0.85278463  0.47679300  0.45172900    -0.14600
C670        C  0.88863779  0.48585257  0.43615277     0.07500
C671        C  0.89165631  0.49734839  0.39813759    -0.14600
H672        H  0.86226490  0.50976060  0.34721613     0.11500
H673        H  0.79302239  0.47411848  0.44332898     0.11500
H674        H  0.84958643  0.46823577  0.48114340     0.11500
H675        H  0.92571607  0.01682262  0.38117036     0.11500
C676        C  0.65169089  0.49628376  0.37129443    -0.14600
C677        C  0.68500522  0.50981817  0.38773889     0.07500
C678        C  0.68272549  0.52629979  0.42447375    -0.14600
C679        C  0.64810314  0.52842055  0.44476665    -0.14600
C680        C  0.61502163  0.51340713  0.42915669     0.07500
C681        C  0.61705835  0.49767066  0.39200767    -0.14600
H682        H  0.65269638  0.48337676  0.34302534     0.11500
H683        H  0.70786800  0.53725148  0.43771871     0.11500
H684        H  0.65544273  0.03291497  0.45981859     0.11500
H685        H  0.59209187  0.48574104  0.37933225     0.11500
C686        C  0.85262956  0.52875928  0.07114715    -0.14600
C687        C  0.88556121  0.51390876  0.08634261     0.07500
C688        C  0.88316527  0.49840821  0.12284156    -0.14600
C689        C  0.83968046  0.99973461  0.13275097    -0.14600
C690        C  0.80626593  0.00973502  0.11459551     0.07500
C691        C  0.80874493  0.02461333  0.07798942    -0.14600
H692        H  0.85332626  0.54055510  0.04296426     0.11500
H693        H  0.90798548  0.48651882  0.13517066     0.11500
H694        H  0.83858264  0.98824140  0.16107055     0.11500
H695        H  0.78347293  0.03290244  0.06358960     0.11500
C696        C  0.60055227  0.00187271  0.09922917    -0.14600
C697        C  0.60424274  0.98802572  0.06127118     0.07500
C698        C  0.63999965  0.97532545  0.04815654    -0.14600
C699        C  0.67143827  0.97758636  0.07164211    -0.14600
C700        C  0.66809394  0.99193635  0.10933594     0.07500
C701        C  0.63207617  0.00336940  0.12318864    -0.14600
H702        H  0.57343436  0.01193446  0.11021445     0.11500
H703        H  0.64409021  0.96473451  0.01908775     0.11500
H704        H  0.69863778  0.96829927  0.06006160     0.11500
H705        H  0.62856921  0.01465749  0.15203377     0.11500
O706        O  0.57117640  0.02821159  0.96595187    -0.81400
O707        O  0.91923611  0.46972444  0.99284415    -0.81400
O708        O  0.50086401  0.43552628  0.94919055    -0.81400
O709        O  0.94763133  0.08293136  0.98085574    -0.81400
O710        O  0.96863565  0.41264453  0.98727485    -0.81500
O711        O  0.50456768  0.06266554  0.94611402    -0.81400
O712        O  0.94248099  0.01321550  0.95010047    -0.81400
O713        O  0.55346175  0.48966381  0.94258046    -0.81500
C714        C  0.57938528  0.51214414  0.95033290     1.08300
C715        C  0.92036202  0.48884338  0.96270256     1.08200
C716        C  0.98174049  0.41249215  0.95278800     1.08300
C717        C  0.97775873  0.08843573  0.96156182     1.08200
O718        O  0.55326913  0.08238570  0.50924117    -0.81400
O719        O  0.00120059  0.43501106  0.56002792    -0.81500
O720        O  0.58054419  0.46907454  0.52085215    -0.81400
O721        O  0.92959669  0.02966294  0.52312932    -0.81400
O722        O  0.94768493  0.48895397  0.56772578    -0.81500
O723        O  0.55775224  0.01316239  0.53810623    -0.81400
O724        O  0.99716663  0.06388078  0.54429175    -0.81400
O725        O  0.53147310  0.41219178  0.52275085    -0.81500
Co726      Co  0.52211321  0.03391699  0.99497457     1.51500
Co727      Co  0.96239243  0.45317551  0.52616102     1.51700
Co728      Co  0.53941743  0.45476416  0.98347154     1.51600
Co729      Co  0.97891633  0.03454720  0.49451807     1.51500
O730        O  0.49318870  0.98710909  0.98730840    -1.43400
C731        C  0.52309201  0.08836944  0.52860893     1.08200
C732        C  0.02427707  0.41117310  0.54698001     1.08300
C733        C  0.58528063  0.99123478  0.53190103     1.08200
C734        C  0.92156538  0.51097515  0.56039323     1.08200
C735        C  0.52365012  0.27770911  0.64112391     0.78900
N736        N  0.51569345  0.27395022  0.67935993    -0.79400
C737        C  0.50980560  0.23986820  0.69392388     0.81400
N738        N  0.51099752  0.21002605  0.67004056    -0.79300
C739        C  0.51874572  0.21355449  0.63209480     0.81500
N740        N  0.52529079  0.24730325  0.61799685    -0.81000
C741        C  0.48268061  0.21804916  0.85647169     0.78900
N742        N  0.47630566  0.24863055  0.87871506    -0.79400
C743        C  0.47823678  0.28246832  0.86361332     0.81400
N744        N  0.48637448  0.28559605  0.82566278    -0.79300
C745        C  0.49247174  0.25556934  0.80278855     0.81500
N746        N  0.49089967  0.22153059  0.81827673    -0.81000
C747        C  0.71451544  0.00214085  0.62929372     0.78900
N748        N  0.74970802  0.00442887  0.61270748    -0.79400
C749        C  0.78089249  0.00827320  0.63448480     0.81400
N750        N  0.77664223  0.00943841  0.67331504    -0.79600
C751        C  0.74144008  0.00746855  0.69014718     0.81500
N752        N  0.71058854  0.00401771  0.66803546    -0.81000
C753        C  0.72211306  0.50652705  0.86592557     0.78900
N754        N  0.72594315  0.50581486  0.82706709    -0.79400
C755        C  0.76095160  0.50260010  0.80989351     0.81400
N756        N  0.79189583  0.49969366  0.83164426    -0.79300
C757        C  0.78838345  0.49976650  0.87038126     0.81500
N758        N  0.75345898  0.50337814  0.88738482    -0.81000
C759        C  0.73688669  0.50288164  0.74458656    -0.17700
C760        C  0.76625148  0.50256855  0.76795656    -0.32900
H761        H  0.70810605  0.50281415  0.75649706     0.11300
H762        H  0.79394897  0.00814557  0.74458787     0.11900
C763        C  0.50046533  0.26132401  0.76148940    -0.17700
C764        C  0.50229705  0.23395585  0.73529162    -0.32900
H765        H  0.00903908  0.20746720  0.75423835     0.11300
H766        H  0.49811541  0.20594601  0.74436658     0.11900
C767        C  0.95547341  0.14962174  0.94328235    -0.14600
C768        C  0.47681623  0.11635011  0.91683269     0.07500
C769        C  0.50377784  0.12045123  0.88674843    -0.14600
C770        C  0.50480528  0.15278441  0.86538505    -0.14600
C771        C  0.47961526  0.18175521  0.87462143     0.07500
C772        C  0.95767392  0.18026151  0.92046640    -0.14600
H773        H  0.93529469  0.14970530  0.96724151     0.11500
H774        H  0.52411349  0.09892192  0.88001842     0.11500
H775        H  0.52617077  0.15575101  0.84280703     0.11500
H776        H  0.93896213  0.20319069  0.92699155     0.11500
C777        C  0.95950112  0.34806393  0.94097344    -0.14600
C778        C  0.47118380  0.37923659  0.93613554     0.07500
C779        C  0.47721353  0.38196131  0.89638969    -0.14600
C780        C  0.47802244  0.35063789  0.87276018    -0.14600
C781        C  0.47305915  0.31576993  0.88834701     0.07500
C782        C  0.96002924  0.31560771  0.91888464    -0.14600
H783        H  0.94787418  0.34747223  0.96999032     0.11500
H784        H  0.48279543  0.40828251  0.88371323     0.11500
H785        H  0.48394532  0.35375997  0.84241575     0.11500
H786        H  0.94834183  0.29113420  0.93157221     0.11500
C787        C  0.54303950  0.15121707  0.54735417    -0.14600
C788        C  0.52141161  0.11992340  0.55554368     0.07500
C789        C  0.99746963  0.12273095  0.60492454    -0.14600
C790        C  0.99715800  0.15483163  0.62831663    -0.14600
C791        C  0.51973358  0.18111519  0.60611628     0.07500
C792        C  0.54188491  0.18166202  0.57215821    -0.14600
H793        H  0.56051666  0.15232337  0.52139815     0.11500
H794        H  0.97508854  0.10269308  0.60861954     0.11500
H795        H  0.97433647  0.15907197  0.64932122     0.11500
H796        H  0.55870007  0.20550413  0.56496555     0.11500
C797        C  0.02634274  0.38233331  0.61079275    -0.14600
C798        C  0.52599656  0.38013745  0.58194973     0.07500
C799        C  0.54505555  0.34920046  0.56655398    -0.14600
C800        C  0.54604353  0.31670075  0.58689543    -0.14600
C801        C  0.52824027  0.31421059  0.62335615     0.07500
C802        C  0.02666199  0.35111190  0.63298570    -0.14600
H803        H  0.01960330  0.40848218  0.62461367     0.11500
H804        H  0.55757291  0.34943255  0.53788541     0.11500
H805        H  0.55955827  0.29296841  0.57330754     0.11500
H806        H  0.02033057  0.35417641  0.66341737     0.11500
C807        C  0.85855296  0.50351890  0.87789593    -0.14600
C808        C  0.82236702  0.49578982  0.89360186     0.07500
C809        C  0.81903167  0.48402876  0.93151916    -0.14600
C810        C  0.85124530  0.48024531  0.95335884    -0.14600
C811        C  0.88730087  0.48879738  0.93792608     0.07500
C812        C  0.89071030  0.50041331  0.90000247    -0.14600
H813        H  0.86196517  0.51272221  0.84874206     0.11500
H814        H  0.79155371  0.47770667  0.94429950     0.11500
H815        H  0.84778168  0.47178356  0.98278424     0.11500
H816        H  0.91464998  0.01416114  0.88165830     0.11500
C817        C  0.65140291  0.49698681  0.86853916    -0.14600
C818        C  0.68444559  0.51104859  0.88511358     0.07500
C819        C  0.68165390  0.52843468  0.92134631    -0.14600
C820        C  0.64692006  0.53062373  0.94128156    -0.14600
C821        C  0.61418338  0.51480160  0.92584394     0.07500
C822        C  0.61657825  0.49845800  0.88895767    -0.14600
H823        H  0.65280842  0.48349733  0.84056315     0.11500
H824        H  0.70654999  0.53991619  0.93459687     0.11500
H825        H  0.64113840  0.04062679  0.95748957     0.11500
H826        H  0.59182682  0.48599604  0.87638432     0.11500
C827        C  0.85322520  0.52710201  0.56912054    -0.14600
C828        C  0.88653984  0.51347107  0.58469607     0.07500
C829        C  0.88476581  0.49925402  0.62176747    -0.14600
C830        C  0.85190740  0.00094404  0.63392753    -0.14600
C831        C  0.81885769  0.01193824  0.61573926     0.07500
C832        C  0.82212668  0.02609309  0.57876834    -0.14600
H833        H  0.85352424  0.53795567  0.54050826     0.11500
H834        H  0.90995285  0.48842850  0.63440469     0.11500
H835        H  0.85021232  0.98998657  0.66247503     0.11500
H836        H  0.79726464  0.03516366  0.56417924     0.11500
C837        C  0.61327359  0.00601397  0.59581108    -0.14600
C838        C  0.61718793  0.99116302  0.55842758     0.07500
C839        C  0.65300873  0.97878901  0.54516097    -0.14600
C840        C  0.68451746  0.98229502  0.56824381    -0.14600
C841        C  0.68081042  0.99762887  0.60538988     0.07500
C842        C  0.64475811  0.00885741  0.61924367    -0.14600
H843        H  0.58602749  0.01584445  0.60671695     0.11500
H844        H  0.65702098  0.96750831  0.51635394     0.11500
H845        H  0.71184915  0.97309714  0.55693289     0.11500
H846        H  0.64108512  0.02078024  0.64780938     0.11500
O847        O  0.57787007  0.52790120  0.48529089    -0.81400
O848        O  0.92614528  0.97018175  0.48472789    -0.81400
O849        O  0.51042756  0.93276861  0.42979388    -0.81400
O850        O  0.95247654  0.57952641  0.48400256    -0.81400
O851        O  0.97421673  0.91212348  0.48428454    -0.81500
O852        O  0.51122677  0.56184790  0.46666097    -0.81400
O853        O  0.94846760  0.50919169  0.45437967    -0.81400
O854        O  0.56143346  0.98957064  0.42462965    -0.81500
C855        C  0.58713141  0.01201388  0.43332590     1.08300
C856        C  0.92858665  0.98861576  0.45394740     1.08200
C857        C  0.98789452  0.91084502  0.45012855     1.08300
C858        C  0.98149032  0.58542542  0.46303758     1.08200
O859        O  0.54806968  0.58174326  0.02711180    -0.81400
O860        O  0.98959349  0.93737096  0.05742239    -0.81500
O861        O  0.57478405  0.96978670  0.00291023    -0.81400
O862        O  0.92327580  0.52909535  0.03139452    -0.81400
O863        O  0.93884643  0.99357554  0.06288928    -0.81500
O864        O  0.55252133  0.51292680  0.05658883    -0.81400
O865        O  0.99033703  0.56493979  0.04917491    -0.81400
O866        O  0.52618498  0.91183493  0.00350709    -0.81500
Co867      Co  0.52946037  0.53406150  0.51551081     1.51500
Co868      Co  0.95232497  0.95656080  0.02246919     1.51700
Co869      Co  0.54760529  0.95424655  0.46484141     1.51600
Co870      Co  0.97124937  0.53510332  0.00043542     1.51500
O871        O  0.49965085  0.48775053  0.50970788    -1.43400
C872        C  0.51901431  0.58890893  0.04776250     1.08200
C873        C  0.01282781  0.91329961  0.04512954     1.08300
C874        C  0.57955122  0.49064203  0.04954964     1.08200
C875        C  0.91308775  0.01554603  0.05465056     1.08200
C876        C  0.51910451  0.78745929  0.13570119     0.78900
N877        N  0.51257119  0.78964915  0.17432846    -0.79400
C878        C  0.50915418  0.75864710  0.19513358     0.81400
N879        N  0.51137321  0.72527705  0.17693941    -0.79300
C880        C  0.51785577  0.72289191  0.13843101     0.81500
N881        N  0.52193250  0.75397994  0.11821369    -0.81000
C882        C  0.48762106  0.70657600  0.36149457     0.78900
N883        N  0.48204068  0.73991667  0.37879647    -0.79400
C884        C  0.48389729  0.77108307  0.35840152     0.81400
N885        N  0.49088255  0.76858789  0.31991885    -0.79300
C886        C  0.49605896  0.73534291  0.30203067     0.81500
N887        N  0.49480420  0.70438560  0.32302951    -0.81000
C888        C  0.71119547  0.50155377  0.14305738     0.78900
N889        N  0.74600004  0.50459268  0.12581769    -0.79400
C890        C  0.77768527  0.50739847  0.14695667     0.81400
N891        N  0.77429794  0.50687924  0.18585091    -0.79600
C892        C  0.73940950  0.50423238  0.20334449     0.81500
N893        N  0.70810107  0.50169459  0.18183586    -0.81000
C894        C  0.73164899  0.99995538  0.35448563     0.78900
N895        N  0.73325971  0.99903059  0.31582351    -0.79400
C896        C  0.76666156  0.99556896  0.29628317     0.81400
N897        N  0.79949248  0.99295271  0.31599049    -0.79300
C898        C  0.79827672  0.99318722  0.35521346     0.81500
N899        N  0.76415578  0.99684268  0.37414323    -0.81000
C900        C  0.73408355  0.99555608  0.23403620    -0.17700
C901        C  0.76670013  0.99529179  0.25388747    -0.32900
H902        H  0.70675072  0.99477460  0.24906686     0.11300
H903        H  0.79291260  0.50300393  0.25636230     0.11900
C904        C  0.50248798  0.73234708  0.25995070    -0.17700
C905        C  0.50299549  0.76169938  0.23724423    -0.32900
H906        H  0.00542056  0.70668492  0.25226684     0.11300
H907        H  0.49913690  0.78896830  0.24985675     0.11900
C908        C  0.95745357  0.64636421  0.44478846    -0.14600
C909        C  0.48315135  0.61318286  0.43443595     0.07500
C910        C  0.50905872  0.61366001  0.40309916    -0.14600
C911        C  0.50972302  0.64334674  0.37813640    -0.14600
C912        C  0.48524077  0.67333249  0.38488646     0.07500
C913        C  0.95820989  0.67681818  0.42142560    -0.14600
H914        H  0.93892239  0.64682365  0.47005705     0.11500
H915        H  0.52880170  0.59128263  0.39805968     0.11500
H916        H  0.53018248  0.64348748  0.35444132     0.11500
H917        H  0.94011600  0.69995054  0.42900977     0.11500
C918        C  0.96298784  0.84715271  0.43990802    -0.14600
C919        C  0.48087133  0.87514487  0.41959273     0.07500
C920        C  0.49130815  0.87322222  0.38041625    -0.14600
C921        C  0.49072511  0.83972621  0.36002830    -0.14600
C922        C  0.48010911  0.80732231  0.37848162     0.07500
C923        C  0.96216742  0.81420461  0.41868574    -0.14600
H924        H  0.95096498  0.84775695  0.46879751     0.11500
H925        H  0.50117437  0.89742291  0.36581785     0.11500
H926        H  0.50009585  0.83902435  0.33022079     0.11500
H927        H  0.94918186  0.79050422  0.43173684     0.11500
C928        C  0.54383464  0.65077922  0.06357960    -0.14600
C929        C  0.51935556  0.62181369  0.07315646     0.07500
C930        C  0.99411694  0.62428167  0.10947686    -0.14600
C931        C  0.99431072  0.65698511  0.13174579    -0.14600
C932        C  0.51974498  0.68712877  0.11790213     0.07500
C933        C  0.54374526  0.68314339  0.08543353    -0.14600
H934        H  0.56242223  0.64885436  0.03839162     0.11500
H935        H  0.97469263  0.60250407  0.11717932     0.11500
H936        H  0.97478891  0.65996896  0.15609683     0.11500
H937        H  0.56229559  0.70528855  0.07670879     0.11500
C938        C  0.01274441  0.88524265  0.10967841    -0.14600
C939        C  0.51866955  0.88224452  0.06405030     0.07500
C940        C  0.53414754  0.84891768  0.05026919    -0.14600
C941        C  0.53529179  0.81856049  0.07394080    -0.14600
C942        C  0.52129442  0.82082956  0.11211278     0.07500
C943        C  0.01455803  0.85443846  0.13248535    -0.14600
H944        H  0.00302523  0.91088582  0.12269646     0.11500
H945        H  0.54400211  0.84582893  0.02071423     0.11500
H946        H  0.54643844  0.79301282  0.06200187     0.11500
H947        H  0.00618809  0.85719895  0.16248869     0.11500
C948        C  0.86819468  0.00445901  0.36623623    -0.14600
C949        C  0.83325327  0.98909898  0.37788382     0.07500
C950        C  0.83112283  0.97122686  0.41311600    -0.14600
C951        C  0.86258845  0.96959930  0.43662415    -0.14600
C952        C  0.89707275  0.98649039  0.42609513     0.07500
C953        C  0.89964717  0.00353254  0.39026636    -0.14600
H954        H  0.87075057  0.01849290  0.33930943     0.11500
H955        H  0.80477481  0.95881622  0.42282027     0.11500
H956        H  0.85935981  0.95622562  0.46387720     0.11500
H957        H  0.91897426  0.50454626  0.38553819     0.11500
C958        C  0.66109146  0.99544266  0.35510622    -0.14600
C959        C  0.69452651  0.00450426  0.37432383     0.07500
C960        C  0.69194834  0.01852282  0.41200684    -0.14600
C961        C  0.65659225  0.02287206  0.43035128    -0.14600
C962        C  0.62330652  0.01258604  0.41157332     0.07500
C963        C  0.62578371  0.99910115  0.37372336    -0.14600
H964        H  0.66225299  0.98464473  0.32592797     0.11500
H965        H  0.71720249  0.02607770  0.42728191     0.11500
H966        H  0.64760217  0.54052382  0.47341580     0.11500
H967        H  0.60053037  0.99082125  0.35881682     0.11500
C968        C  0.84398731  0.02857203  0.05946463    -0.14600
C969        C  0.87721274  0.01706700  0.07697633     0.07500
C970        C  0.87483386  0.00305360  0.11394482    -0.14600
C971        C  0.84838314  0.49737981  0.14337459    -0.14600
C972        C  0.81526688  0.51099003  0.12732443     0.07500
C973        C  0.81792101  0.52701971  0.09120059    -0.14600
H974        H  0.84503098  0.03914175  0.03072560     0.11500
H975        H  0.90001855  0.99386316  0.12790766     0.11500
H976        H  0.84711798  0.48476175  0.17113759     0.11500
H977        H  0.79297675  0.53796681  0.07819519     0.11500
C978        C  0.60896840  0.50384092  0.11285877    -0.14600
C979        C  0.61227505  0.49061225  0.07483762     0.07500
C980        C  0.64810594  0.48026780  0.05977061    -0.14600
C981        C  0.68021215  0.48398904  0.08192564    -0.14600
C982        C  0.67705621  0.49748157  0.11984634     0.07500
C983        C  0.64106281  0.50686786  0.13533169    -0.14600
H984        H  0.58167803  0.51216957  0.12503635     0.11500
H985        H  0.65156113  0.47043923  0.03035489     0.11500
H986        H  0.70752484  0.47627960  0.06934548     0.11500
H987        H  0.63783527  0.51736686  0.16451707     0.11500
O988        O  0.57720844  0.52933371  0.98199795    -0.81400
O989        O  0.91221298  0.97267516  0.98620111    -0.81400
O990        O  0.49799441  0.93243931  0.92977947    -0.81400
O991        O  0.95226795  0.58085243  0.98593813    -0.81400
O992        O  0.95937344  0.91373435  0.98457164    -0.81500
O993        O  0.51021687  0.56281422  0.96351051    -0.81400
O994        O  0.94755136  0.51080428  0.95604481    -0.81400
O995        O  0.54994460  0.98788146  0.92550480    -0.81500
C996        C  0.57491778  0.01100433  0.93437863     1.08300
C997        C  0.91480250  0.99152003  0.95580816     1.08200
C998        C  0.97287902  0.91265409  0.95028542     1.08300
C999        C  0.98133033  0.58674078  0.96501238     1.08200
O1000       O  0.54864938  0.58003302  0.53073535    -0.81400
O1001       O  0.00347128  0.93603613  0.55735467    -0.81500
O1002       O  0.58783358  0.97185531  0.50095966    -0.81400
O1003       O  0.92378400  0.52782501  0.52933576    -0.81400
O1004       O  0.95176793  0.99125550  0.56265237    -0.81500
O1005       O  0.55277916  0.51076278  0.55947951    -0.81400
O1006       O  0.99039780  0.56414556  0.54772885    -0.81400
O1007       O  0.54033654  0.91346580  0.50315408    -0.81500
Co1008     Co  0.52899147  0.53553080  0.01240470     1.51500
Co1009     Co  0.96646097  0.95480089  0.52181805     1.51700
Co1010     Co  0.53457985  0.95294779  0.96584767     1.51600
Co1011     Co  0.97181440  0.53399106  0.49879710     1.51500
O1012       O  0.49969405  0.48879885  0.00738732    -1.43400
C1013       C  0.51906199  0.58785672  0.55030727     1.08200
C1014       C  0.02649139  0.91156810  0.54560478     1.08300
C1015       C  0.57956240  0.48827716  0.55194353     1.08200
C1016       C  0.92612744  0.01328595  0.55431824     1.08200
C1017       C  0.52473498  0.78893822  0.63452098     0.78900
N1018       N  0.51725080  0.79127947  0.67299594    -0.79400
C1019       C  0.51086959  0.76043426  0.69342162     0.81400
N1020       N  0.51115086  0.72715230  0.67500367    -0.79300
C1021       C  0.51843204  0.72456538  0.63664281     0.81500
N1022       N  0.52539446  0.75547954  0.61678596    -0.81000
C1023       C  0.48383889  0.70738562  0.85867692     0.78900
N1024       N  0.47651764  0.74046582  0.87583741    -0.79400
C1025       C  0.47804936  0.77170678  0.85559456     0.81400
N1026       N  0.48660394  0.76959560  0.81738751    -0.79300
C1027       C  0.49350679  0.73659026  0.79960527     0.81500
N1028       N  0.49244386  0.70553251  0.82045902    -0.81000
C1029       C  0.71289508  0.49865252  0.64273020     0.78900
N1030       N  0.74744764  0.50225546  0.62507930    -0.79400
C1031       C  0.77927197  0.50600028  0.64593247     0.81400
N1032       N  0.77627990  0.50584175  0.68487489    -0.79600
C1033       C  0.74161697  0.50256987  0.70264079     0.81500
N1034       N  0.71023585  0.49913476  0.68147081    -0.81000
C1035       C  0.71964818  0.00991621  0.85348844     0.78900
N1036       N  0.72408328  0.01062445  0.81472276    -0.79400
C1037       C  0.75933771  0.00826545  0.79798777     0.81400
N1038       N  0.79002652  0.00480640  0.82014148    -0.79300
C1039       C  0.78587501  0.00342903  0.85882313     0.81500
N1040       N  0.75064412  0.00615212  0.87530425    -0.81000
C1041       C  0.73591667  0.00878891  0.73212941    -0.17700
C1042       C  0.76499670  0.00879129  0.75603685    -0.32900
H1043       H  0.70696319  0.00878638  0.74358379     0.11300
H1044       H  0.79505331  0.50189870  0.75611079     0.11900
C1045       C  0.50137710  0.73391068  0.75774765    -0.17700
C1046       C  0.50359060  0.76346076  0.73536812    -0.32900
H1047       H  0.00268732  0.70674241  0.75418239     0.11300
H1048       H  0.50037908  0.79074593  0.74812130     0.11900
C1049       C  0.95660206  0.64735953  0.94655807    -0.14600
C1050       C  0.48137408  0.61406283  0.93173861     0.07500
C1051       C  0.50736606  0.61509436  0.90050779    -0.14600
C1052       C  0.50737151  0.64472022  0.87549074    -0.14600
C1053       C  0.48209011  0.67410454  0.88204225     0.07500
C1054       C  0.95705832  0.67783275  0.92324893    -0.14600
H1055       H  0.93734534  0.64725536  0.97126423     0.11500
H1056       H  0.52769287  0.59319281  0.89559080     0.11500
H1057       H  0.52793471  0.64529795  0.85190529     0.11500
H1058       H  0.93797726  0.70035102  0.93029516     0.11500
C1059       C  0.95267098  0.84726560  0.94066823    -0.14600
C1060       C  0.46937932  0.87494603  0.91749846     0.07500
C1061       C  0.48241899  0.87357076  0.87903474    -0.14600
C1062       C  0.48364118  0.84031557  0.85827528    -0.14600
C1063       C  0.47218907  0.80764394  0.87564666     0.07500
C1064       C  0.95409081  0.81421806  0.91954091    -0.14600
H1065       H  0.94131320  0.84715093  0.96980563     0.11500
H1066       H  0.49310803  0.89799126  0.86541695     0.11500
H1067       H  0.49515137  0.83999997  0.82919053     0.11500
H1068       H  0.94331711  0.78973802  0.93296807     0.11500
C1069       C  0.54077225  0.65144794  0.56153647    -0.14600
C1070       C  0.51864325  0.62181801  0.57400898     0.07500
C1071       C  0.99317509  0.62300956  0.60851373    -0.14600
C1072       C  0.99341629  0.65533167  0.63148476    -0.14600
C1073       C  0.51889948  0.68867780  0.61614735     0.07500
C1074       C  0.54062162  0.68452942  0.58210095    -0.14600
H1075       H  0.55775171  0.64929188  0.53524202     0.11500
H1076       H  0.97231400  0.60197670  0.61449647     0.11500
H1077       H  0.97248879  0.65876347  0.65455792     0.11500
H1078       H  0.55771497  0.70691149  0.57133614     0.11500
C1079       C  0.02483997  0.88352976  0.61023117    -0.14600
C1080       C  0.53260950  0.88422069  0.56392252     0.07500
C1081       C  0.54598068  0.85011359  0.54996743    -0.14600
C1082       C  0.54468398  0.81948982  0.57336847    -0.14600
C1083       C  0.53028132  0.82230749  0.61138286     0.07500
C1084       C  0.02363641  0.85261765  0.63307443    -0.14600
H1085       H  0.01772316  0.90993166  0.62326682     0.11500
H1086       H  0.55569660  0.84664426  0.52040504     0.11500
H1087       H  0.55397487  0.79333257  0.56126775     0.11500
H1088       H  0.01579226  0.85612055  0.66313986     0.11500
C1089       C  0.85572414  0.00857054  0.86911321    -0.14600
C1090       C  0.81934956  0.99868487  0.88274176     0.07500
C1091       C  0.81516270  0.98439106  0.91959173    -0.14600
C1092       C  0.84659663  0.98051641  0.94255114    -0.14600
C1093       C  0.88279816  0.99144504  0.92942490     0.07500
C1094       C  0.88711508  0.00534508  0.89239852    -0.14600
H1095       H  0.85978020  0.01971133  0.84081981     0.11500
H1096       H  0.78754405  0.97628551  0.93075470     0.11500
H1097       H  0.84229172  0.97013285  0.97115393     0.11500
H1098       H  0.91817598  0.50739022  0.88759665     0.11500
C1099       C  0.64909517  0.99976269  0.85403388    -0.14600
C1100       C  0.68162021  0.01310606  0.87216137     0.07500
C1101       C  0.67791257  0.02842656  0.90931227    -0.14600
C1102       C  0.64270984  0.02948036  0.92844913    -0.14600
C1103       C  0.61044234  0.01453234  0.91122632     0.07500
C1104       C  0.61382581  0.00004550  0.87361137    -0.14600
H1105       H  0.65121779  0.98779976  0.82536386     0.11500
H1106       H  0.70241225  0.03923562  0.92382797     0.11500
H1107       H  0.64613175  0.54330524  0.96966625     0.11500
H1108       H  0.58944301  0.98826061  0.85970791     0.11500
C1109       C  0.85741421  0.02842651  0.55995579    -0.14600
C1110       C  0.89027814  0.01589230  0.57727138     0.07500
C1111       C  0.88729832  0.00249164  0.61465638    -0.14600
C1112       C  0.85013752  0.49801933  0.64245717    -0.14600
C1113       C  0.81659978  0.51014565  0.62602095     0.07500
C1114       C  0.81865664  0.52514535  0.58937143    -0.14600
H1115       H  0.85867744  0.03863905  0.53107275     0.11500
H1116       H  0.91215209  0.99253977  0.62862525     0.11500
H1117       H  0.84934493  0.48630202  0.67066903     0.11500
H1118       H  0.79337112  0.53501255  0.57609443     0.11500
C1119       C  0.60998372  0.49979043  0.61500690    -0.14600
C1120       C  0.61269812  0.48774927  0.57659669     0.07500
C1121       C  0.64836257  0.47818435  0.56046601    -0.14600
C1122       C  0.68092559  0.48170919  0.58195205    -0.14600
C1123       C  0.67837735  0.49423535  0.62021096     0.07500
C1124       C  0.64253616  0.50261037  0.63678400    -0.14600
H1125       H  0.58282322  0.50743342  0.62799236     0.11500
H1126       H  0.65132188  0.46924896  0.53071648     0.11500
H1127       H  0.70809845  0.47476532  0.56855845     0.11500
H1128       H  0.63975188  0.51229783  0.66629201     0.11500
loop_ 
_geom_bond_atom_site_label_1 
_geom_bond_atom_site_label_2 
_geom_bond_distance 
_geom_bond_site_symmetry_2 
_ccdc_geom_bond_type 
O1          Co21   2.008       .  S
O1          C291   1.264       .  A
O2         Co163   2.025       .  S
O2           C10   1.278       .  A
O3          Co23   1.964       .  S
O3          C575   1.261   1_455  A
O4         Co165   1.878       .  S
O4           C12   1.260       .  A
O5         Co163   2.030       .  S
O5           C11   1.274       .  A
O6          Co21   2.110       .  S
O6          C576   1.296   1_455  A
O7         Co165   1.968       .  S
O7          C292   1.270   1_545  A
O8          Co23   1.980       .  S
O8            C9   1.257       .  A
C9          O283   1.259       .  A
C9          C116   1.476       .  S
C10         O289   1.269       .  A
C10         C106   1.479       .  S
C11         O567   1.259       .  A
C11         C637   1.475       .  S
C12         O570   1.300       .  A
C12         C627   1.486       .  S
O13        Co162   1.877       .  S
O13          C26   1.261       .  A
O14         Co22   1.971       .  S
O14          C27   1.263       .  A
O15        Co164   2.031   1_554  S
O15         C310   1.280       .  A
O16         Co24   2.007   1_554  S
O16         C311   1.262       .  A
O17         Co22   1.983       .  S
O17          C29   1.260       .  A
O18        Co162   1.968       .  S
O18          C28   1.269   1_545  A
O19         Co24   2.120   1_554  S
O19         C590   1.299       .  A
O20        Co164   2.027   1_554  S
O20         C591   1.273       .  A
Co21        O154   1.885       .  S
Co21        O159   1.981       .  S
Co21         O25   2.004   1_545  S
Co22        O143   2.023   1_554  S
Co22        O146   2.031   1_554  S
Co22       O1012   2.037       .  S
Co23        O156   2.024       .  S
Co23        O161   2.027       .  S
Co23        O307   2.034       .  S
Co24        O145   1.880       .  S
Co24        O148   1.983       .  S
Co24        O730   2.009   1_545  S
O25       Co1009   2.030   1_455  S
O25        Co305   2.036       .  S
O25        Co729   2.007   1_465  S
C26         O583   1.301   1_455  A
C26          C83   1.488       .  S
C27         O584   1.277       .  A
C27         C657   1.492       .  S
C28         O297   1.277       .  A
C28         C133   1.473       .  S
C29         O298   1.261       .  A
C29         C123   1.479       .  S
C30          C96   1.481       .  S
C30          N31   1.355       .  A
C30          N35   1.357       .  A
N31          C32   1.353       .  A
C32          N33   1.366       .  A
C32          C59   1.477       .  S
N33          C34   1.363       .  A
C34          C86   1.480       .  S
C34          N35   1.360       .  A
C36          C66   1.466       .  S
C36          N37   1.353       .  A
C36          N41   1.352   1_655  A
N37          C38   1.355       .  A
C38          C76   1.488       .  S
C38          N39   1.366       .  A
N39          C40   1.369   1_655  A
C40          N41   1.355       .  A
C40          C58   1.477       .  S
C42         C136   1.475   1_545  S
C42          N43   1.357       .  A
C42          N47   1.355       .  A
N43          C44   1.358       .  A
C44         C126   1.482       .  S
C44          N45   1.361       .  A
N45          C46   1.363       .  A
C46          N47   1.355       .  A
C46         C336   1.473       .  S
C48         C113   1.479       .  S
C48          N49   1.358       .  A
C48          N53   1.359       .  A
N49          C50   1.360       .  A
C50          N51   1.358       .  A
C50          C55   1.476       .  S
N51          C52   1.359       .  A
C52         C103   1.480       .  S
C52          N53   1.358       .  A
C54         C328   1.475       .  S
C54          C55   1.344       .  D
C54          H56   1.087       .  S
C55         H339   1.087       .  S
H57         C337   1.087       .  S
C58          C59   1.337       .  D
C58         H624   1.087       .  S
C59          H61   1.087       .  S
H60         C622   1.087       .  S
C62          C67   1.391       .  A
C62         C627   1.406       .  A
C62          H68   1.083       .  S
C63         C576   1.465       .  S
C63          C64   1.403   1_655  A
C63         C626   1.403       .  A
C64          C65   1.399       .  A
C64          H69   1.083       .  S
C65          C66   1.406   1_455  A
C65          H70   1.083       .  S
C66         C631   1.400       .  A
C67         C630   1.402       .  A
C67          H71   1.084       .  S
C72          C77   1.399       .  A
C72         C637   1.403       .  A
C72          H78   1.083       .  S
C73         C575   1.488       .  S
C73          C74   1.411       .  A
C73         C636   1.403       .  A
C74          C75   1.404       .  A
C74          H79   1.083   1_655  S
C75          C76   1.404       .  A
C75          H80   1.083   1_655  S
C76         C641   1.410       .  A
C77         C640   1.408       .  A
C77          H81   1.083       .  S
C82          C83   1.408       .  A
C82          C87   1.392       .  A
C82          H88   1.083       .  S
C83         C648   1.408   1_455  A
C84          C85   1.402       .  A
C84         C647   1.403       .  A
C84          H89   1.083       .  S
C85         C650   1.407       .  A
C85          H90   1.083       .  S
C86          C87   1.399       .  A
C86         C649   1.408   1_455  A
C87          H91   1.084       .  S
C92          C97   1.407       .  A
C92         C657   1.411       .  A
C92          H98   1.083       .  S
C93         C591   1.475       .  S
C93          C94   1.405       .  A
C93         C656   1.403       .  A
C94          C95   1.401       .  A
C94          H99   1.083       .  S
C95          C96   1.407       .  A
C95         H100   1.083       .  S
C96         C661   1.405       .  A
C97         C660   1.406       .  A
C97         H101   1.083       .  S
C102        C103   1.405       .  A
C102        C107   1.399       .  A
C102        H108   1.083       .  S
C103        C104   1.405       .  A
C104        C105   1.397       .  A
C104        H109   1.083       .  S
C105        C106   1.405       .  A
C105        H110   1.083       .  S
C106        C107   1.405       .  A
C107        H393   1.083       .  S
H111        C389   1.083   1_545  S
C112        C113   1.406       .  A
C112        C117   1.401       .  A
C112        H118   1.083       .  S
C113        C114   1.404       .  A
C114        C115   1.395       .  A
C114        H119   1.083       .  S
C115        C116   1.405       .  A
C115        H402   1.084       .  S
C116        C117   1.405       .  A
C117        H121   1.083       .  S
H120        C397   1.083       .  S
C122        C123   1.406       .  A
C122        C409   1.396       .  A
C122        H128   1.083       .  S
C123        C124   1.405       .  A
C124        C407   1.401       .  A
C124        H129   1.083       .  S
C125        C126   1.405       .  A
C125        C406   1.402       .  A
C125        H130   1.083   1_545  S
C126        C127   1.406       .  A
C127        C404   1.397       .  A
C127        H131   1.083       .  S
C132        C133   1.403       .  A
C132        C137   1.397   1_565  A
C132        H138   1.083   1_565  S
C133        C134   1.405       .  A
C134        C135   1.394       .  A
C134        H139   1.083       .  S
C135        C136   1.403       .  A
C135        H140   1.083       .  S
C136        C137   1.406   1_565  A
C137        H141   1.083       .  S
O142       Co162   1.991   1_556  S
O142        C432   1.259       .  A
O143        C151   1.278       .  A
O144       Co164   1.966       .  S
O144        C716   1.261   1_455  A
O145        C153   1.263       .  A
O146        C152   1.275       .  A
O147       Co162   2.110   1_556  S
O147        C717   1.295   1_455  A
O148        C433   1.271   1_545  A
O149       Co164   1.978       .  S
O149        C150   1.256       .  A
C150        O424   1.259       .  A
C150        C257   1.478       .  S
C151        O430   1.269       .  A
C151        C247   1.475       .  S
C152        O708   1.260       .  A
C152        C778   1.475       .  S
C153        O711   1.302       .  A
C153        C768   1.488       .  S
O154        C167   1.264       .  A
O155       Co163   1.969       .  S
O155        C168   1.263       .  A
O156        C451   1.279       .  A
O157       Co165   1.985       .  S
O157        C452   1.256       .  A
O158       Co163   1.980       .  S
O158        C170   1.258       .  A
O159        C169   1.270   1_545  A
O160       Co165   2.116       .  S
O160        C731   1.296       .  A
O161        C732   1.274       .  A
Co162       O166   1.995   1_445  S
Co163       O871   2.037       .  S
Co164       O448   2.037   1_556  S
Co165       O589   1.996   1_545  S
O166       Co868   2.020       .  S
O166       Co446   2.024   1_654  S
O166       Co588   2.006   1_564  S
C167        O724   1.303   1_455  A
C167        C224   1.493       .  S
C168        O725   1.278       .  A
C168        C798   1.491       .  S
C169        O438   1.279       .  A
C169        C274   1.488       .  S
C170        O439   1.262       .  A
C170        C264   1.478       .  S
C171        C237   1.483       .  S
C171        N172   1.354       .  A
C171        N176   1.358       .  A
N172        C173   1.353       .  A
C173        N174   1.368       .  A
C173        C200   1.480       .  S
N174        C175   1.366       .  A
C175        C227   1.487       .  S
C175        N176   1.361       .  A
C177        C207   1.466       .  S
C177        N178   1.353       .  A
C177        N182   1.351       .  A
N178        C179   1.356       .  A
C179        C217   1.492       .  S
C179        N180   1.368       .  A
N180        C181   1.371       .  A
C181        N182   1.354       .  A
C181        C199   1.479   1_655  S
C183        C277   1.488       .  S
C183        N184   1.360   1_565  A
C183        N188   1.367       .  A
N184        C185   1.356       .  A
C185        C267   1.470       .  S
C185        N186   1.349       .  A
N186        C187   1.347   1_545  A
C187        N188   1.368       .  A
C187        C477   1.472       .  S
C189        C254   1.478       .  S
C189        N190   1.358       .  A
C189        N194   1.358       .  A
N190        C191   1.360       .  A
C191        N192   1.357       .  A
C191        C196   1.473       .  S
N192        C193   1.358       .  A
C193        C244   1.481       .  S
C193        N194   1.359       .  A
C195        C469   1.473       .  S
C195        C196   1.342       .  D
C195        H197   1.087       .  S
C196        H480   1.087       .  S
H198        C478   1.087       .  S
C199        C200   1.336       .  D
C199        H765   1.087       .  S
C200        H202   1.087   1_455  S
H201        C763   1.087       .  S
C203        C768   1.406       .  A
C203        C208   1.393       .  A
C203        H209   1.083       .  S
C204        C717   1.467       .  S
C204        C767   1.404       .  A
C204        C205   1.403   1_655  A
C205        C206   1.398       .  A
C205        H210   1.083       .  S
C206        C207   1.405   1_455  A
C206        H211   1.083       .  S
C207        C772   1.400       .  A
C208        C771   1.402       .  A
C208        H212   1.084       .  S
C213        C778   1.404       .  A
C213        C218   1.400       .  A
C213        H219   1.083       .  S
C214        C716   1.491       .  S
C214        C777   1.403       .  A
C214        C215   1.412       .  A
C215        C216   1.406       .  A
C215        H220   1.083   1_655  S
C216        C217   1.405       .  A
C216        H221   1.083   1_655  S
C217        C782   1.410       .  A
C218        C781   1.408       .  A
C218        H222   1.083       .  S
C223        C224   1.408       .  A
C223        C228   1.396       .  A
C223        H229   1.083       .  S
C224        C789   1.409   1_455  A
C225        C788   1.402       .  A
C225        C226   1.400       .  A
C225        H230   1.083       .  S
C226        C791   1.407       .  A
C226        H231   1.083       .  S
C227        C790   1.409   1_455  A
C227        C228   1.402       .  A
C228        H232   1.083       .  S
C233        C798   1.411       .  A
C233        C238   1.406       .  A
C233        H239   1.083       .  S
C234        C732   1.476       .  S
C234        C797   1.403       .  A
C234        C235   1.405       .  A
C235        C236   1.400       .  A
C235        H240   1.083       .  S
C236        C237   1.407       .  A
C236        H241   1.083       .  S
C237        C802   1.407       .  A
C238        C801   1.405       .  A
C238        H242   1.083       .  S
C243        C244   1.407       .  A
C243        C248   1.400       .  A
C243        H249   1.083       .  S
C244        C245   1.405       .  A
C245        C246   1.395       .  A
C245        H250   1.083       .  S
C246        C247   1.404       .  A
C246        H251   1.084       .  S
C247        C248   1.404       .  A
C248        H534   1.083       .  S
H252        C530   1.083   1_545  S
C253        C254   1.405       .  A
C253        C258   1.400       .  A
C253        H259   1.083       .  S
C254        C255   1.404       .  A
C255        C256   1.395       .  A
C255        H260   1.083       .  S
C256        C257   1.405       .  A
C256        H543   1.083       .  S
C257        C258   1.406       .  A
C258        H262   1.083       .  S
H261        C538   1.083       .  S
C263        C264   1.405       .  A
C263        C550   1.396       .  A
C263        H269   1.083       .  S
C264        C265   1.405       .  A
C265        C548   1.400       .  A
C265        H270   1.083       .  S
C266        C547   1.391       .  A
C266        C267   1.407       .  A
C266        H271   1.083       .  S
C267        C268   1.402       .  A
C268        C545   1.393       .  A
C268        H272   1.083       .  S
C273        C274   1.409       .  A
C273        C278   1.408       .  A
C273        H279   1.083   1_565  S
C274        C275   1.406       .  A
C275        C276   1.397       .  A
C275        H280   1.083       .  S
C276        C277   1.406       .  A
C276        H281   1.083       .  S
C277        C278   1.406       .  A
C278        H282   1.083   1_565  S
O283       Co303   1.995       .  S
O284       Co445   2.024       .  S
O284        C292   1.279       .  A
O285       Co305   1.969       .  S
O285        C857   1.261   1_455  A
O286       Co447   1.886       .  S
O286        C294   1.263       .  A
O287       Co445   2.029       .  S
O287        C293   1.276       .  A
O288       Co303   2.113       .  S
O288        C858   1.297   1_455  A
O289       Co447   1.972       .  S
O290       Co305   1.983       .  S
O290        C291   1.259   1_565  A
C291        C398   1.483       .  S
C292        C388   1.475       .  S
C293        O849   1.264       .  A
C293        C919   1.484       .  S
C294        O852   1.298       .  A
C294        C909   1.482       .  S
O295       Co444   1.882       .  S
O295        C308   1.261       .  A
O296       Co304   1.963       .  S
O296        C309   1.260       .  A
O297       Co446   2.020   1_554  S
O298       Co306   1.996   1_554  S
O299       Co304   1.978       .  S
O299        C311   1.256   1_565  A
O300       Co444   1.971       .  S
O300        C310   1.270       .  A
O301       Co306   2.117   1_554  S
O301        C872   1.298       .  A
O302       Co446   2.028   1_554  S
O302        C873   1.276       .  A
Co303       O436   1.883       .  S
Co303       O441   1.969       .  S
Co303       O307   1.997       .  S
Co304       O425   2.034   1_554  S
Co304       O428   2.029   1_554  S
Co304       O730   2.030   1_554  S
Co305       O438   2.029       .  S
Co305       O443   2.034       .  S
Co306       O427   1.887       .  S
Co306       O430   1.973       .  S
Co306      O1012   2.002   1_556  S
O307       Co727   2.027   1_455  S
O307      Co1011   2.008   1_455  S
C308        O865   1.299   1_455  A
C308        C365   1.484       .  S
C309        O866   1.275       .  A
C309        C939   1.486       .  S
C310        C415   1.479       .  S
C311        C405   1.480       .  S
C312        C378   1.483       .  S
C312        N313   1.357       .  A
C312        N317   1.357       .  A
N313        C314   1.357       .  A
C314        N315   1.365       .  A
C314        C341   1.479       .  S
N315        C316   1.362       .  A
C316        C368   1.482       .  S
C316        N317   1.359       .  A
C318        C348   1.477       .  S
C318        N319   1.358       .  A
C318        N323   1.356       .  A
N319        C320   1.359       .  A
C320        C358   1.488       .  S
C320        N321   1.363       .  A
N321        C322   1.365       .  A
C322        N323   1.358       .  A
C322        C340   1.480   1_655  S
C324        C418   1.482       .  S
C324        N325   1.359       .  A
C324        N329   1.359       .  A
N325        C326   1.359       .  A
C326        C408   1.480       .  S
C326        N327   1.359       .  A
N327        C328   1.360       .  A
C328        N329   1.358       .  A
C330        C395   1.483       .  S
C330        N331   1.361       .  A
C330        N335   1.359       .  A
N331        C332   1.363       .  A
C332        N333   1.355       .  A
C332        C337   1.474       .  S
N333        C334   1.356   1_545  A
C334        C385   1.478       .  S
C334        N335   1.359   1_565  A
C336        C337   1.339       .  D
C336        H338   1.087       .  S
C340        C341   1.342       .  D
C340        H906   1.087       .  S
C341        H343   1.087       .  S
H342        C904   1.086       .  S
C344        C909   1.405       .  A
C344        C349   1.393       .  A
C344        H350   1.083       .  S
C345        C858   1.476       .  S
C345        C908   1.406       .  A
C345        C346   1.404   1_655  A
C346        C347   1.402       .  A
C346        H351   1.083       .  S
C347        C348   1.407   1_455  A
C347        H352   1.083       .  S
C348        C913   1.402       .  A
C349        C912   1.402       .  A
C349        H353   1.083       .  S
C354        C919   1.405       .  A
C354        C359   1.399       .  A
C354        H360   1.083       .  S
C355        C857   1.487       .  S
C355        C918   1.405       .  A
C355        C356   1.409       .  A
C356        C357   1.404       .  A
C356        H361   1.083   1_655  S
C357        C358   1.406       .  A
C357        H362   1.083   1_655  S
C358        C923   1.407       .  A
C359        C922   1.408       .  A
C359        H363   1.083       .  S
C364        C365   1.406       .  A
C364        C369   1.392       .  A
C364        H370   1.083       .  S
C365        C930   1.406   1_455  A
C366        C929   1.405       .  A
C366        C367   1.405       .  A
C366        H371   1.083       .  S
C367        C932   1.407       .  A
C367        H372   1.083       .  S
C368        C931   1.409   1_455  A
C368        C369   1.401       .  A
C369        H373   1.083       .  S
C374        C939   1.409       .  A
C374        C379   1.401       .  A
C374        H380   1.083       .  S
C375        C873   1.478       .  S
C375        C938   1.405       .  A
C375        C376   1.404       .  A
C376        C377   1.399       .  A
C376        H381   1.083       .  S
C377        C378   1.407       .  A
C377        H382   1.083       .  S
C378        C943   1.406       .  A
C379        C942   1.405       .  A
C379        H383   1.083       .  S
C384        C385   1.406       .  A
C384        C389   1.398       .  A
C384        H390   1.083   1_565  S
C385        C386   1.404       .  A
C386        C387   1.395       .  A
C386        H391   1.083       .  S
C387        C388   1.406       .  A
C387        H392   1.083       .  S
C388        C389   1.404       .  A
C394        C395   1.406       .  A
C394        C399   1.403       .  A
C394        H400   1.083   1_545  S
C395        C396   1.405       .  A
C396        C397   1.398       .  A
C396        H401   1.083       .  S
C397        C398   1.405       .  A
C398        C399   1.407       .  A
C399        H403   1.083   1_545  S
C404        C405   1.404       .  A
C404        H410   1.083       .  S
C405        C406   1.407       .  A
C406        H411   1.083   1_545  S
C407        C408   1.406       .  A
C407        H412   1.083       .  S
C408        C409   1.404       .  A
C409        H413   1.083       .  S
C414        C415   1.405       .  A
C414        C419   1.399       .  A
C414        H420   1.083       .  S
C415        C416   1.406       .  A
C416        C417   1.398       .  A
C416        H421   1.083       .  S
C417        C418   1.406       .  A
C417        H422   1.083       .  S
C418        C419   1.406       .  A
C419        H423   1.083       .  S
O424       Co444   1.997   1_556  S
O425        C433   1.281       .  A
O426       Co446   1.966   1_655  S
O426        C998   1.260       .  A
O427        C435   1.263       .  A
O428        C434   1.276       .  A
O429       Co444   2.113   1_556  S
O429        C999   1.298   1_455  A
O431       Co446   1.970       .  S
O431        C432   1.257   1_565  A
C432        C539   1.465       .  S
C433        C529   1.492       .  S
C434        O990   1.262       .  A
C434       C1060   1.482       .  S
C435        O993   1.298       .  A
C435       C1050   1.482       .  S
O436        C449   1.260       .  A
O437       Co445   1.961       .  S
O437        C450   1.260       .  A
O439       Co447   1.998       .  S
O440       Co445   1.974       .  S
O440        C452   1.256   1_565  A
O441        C451   1.269       .  A
O442       Co447   2.116       .  S
O442       C1013   1.297       .  A
O443       C1014   1.276       .  A
Co444       O448   1.999       .  S
Co445       O589   2.018       .  S
Co447       O871   2.003       .  S
O448       Co586   2.030   1_455  S
O448       Co870   2.008   1_455  S
C449       O1006   1.300   1_455  A
C449        C506   1.487       .  S
C450       O1007   1.276       .  A
C450       C1080   1.485       .  S
C451        C556   1.474       .  S
C452        C546   1.463       .  S
C453        C519   1.488       .  S
C453        N454   1.359       .  A
C453        N458   1.357       .  A
N454        C455   1.359       .  A
C455        N456   1.367       .  A
C455        C482   1.484   1_455  S
N456        C457   1.364       .  A
C457        C509   1.485       .  S
C457        N458   1.360       .  A
C459        C489   1.477       .  S
C459        N460   1.356       .  A
C459        N464   1.356       .  A
N460        C461   1.358       .  A
C461        C499   1.491       .  S
C461        N462   1.366       .  A
N462        C463   1.368       .  A
C463        N464   1.358       .  A
C463        C481   1.484       .  S
C465        C559   1.477       .  S
C465        N466   1.358       .  A
C465        N470   1.358       .  A
N466        C467   1.357       .  A
C467        C549   1.479       .  S
C467        N468   1.358       .  A
N468        C469   1.360       .  A
C469        N470   1.357       .  A
C471        C536   1.470       .  S
C471        N472   1.349   1_545  A
C471        N476   1.357   1_545  A
N472        C473   1.347       .  A
C473        N474   1.369       .  A
C473        C478   1.473       .  S
N474        C475   1.367       .  A
C475        C526   1.490       .  S
C475        N476   1.361       .  A
C477        C478   1.329       .  D
C477        H479   1.087       .  S
C481        C482   1.343       .  D
C481       H1047   1.087   1_655  S
C482        H484   1.087       .  S
H483       C1045   1.086       .  S
C485       C1050   1.406       .  A
C485        C490   1.393       .  A
C485        H491   1.083       .  S
C486        C999   1.477       .  S
C486       C1049   1.405       .  A
C486        C487   1.404   1_655  A
C487        C488   1.403       .  A
C487        H492   1.083       .  S
C488        C489   1.407   1_455  A
C488        H493   1.083       .  S
C489       C1054   1.402       .  A
C490       C1053   1.402       .  A
C490        H494   1.083       .  S
C495       C1060   1.404       .  A
C495        C500   1.399       .  A
C495        H501   1.083       .  S
C496        C998   1.490       .  S
C496       C1059   1.404       .  A
C496        C497   1.410       .  A
C497        C498   1.405       .  A
C497        H502   1.083       .  S
C498        C499   1.406       .  A
C498        H503   1.083       .  S
C499       C1064   1.409       .  A
C500       C1063   1.408       .  A
C500        H504   1.083       .  S
C505        C506   1.407       .  A
C505        C510   1.393       .  A
C505        H511   1.083       .  S
C506       C1071   1.408   1_455  A
C507       C1070   1.404       .  A
C507        C508   1.405       .  A
C507        H512   1.083       .  S
C508       C1073   1.409       .  A
C508        H513   1.083       .  S
C509       C1072   1.409   1_455  A
C509        C510   1.402       .  A
C510        H514   1.083       .  S
C515       C1080   1.408       .  A
C515        C520   1.400       .  A
C515        H521   1.083       .  S
C516       C1014   1.481       .  S
C516       C1079   1.406       .  A
C516        C517   1.405       .  A
C517        C518   1.402       .  A
C517        H522   1.083       .  S
C518        C519   1.409       .  A
C518        H523   1.083       .  S
C519       C1084   1.406       .  A
C520       C1083   1.404       .  A
C520        H524   1.083       .  S
C525        C526   1.407       .  A
C525        C530   1.410       .  A
C525        H531   1.083   1_565  S
C526        C527   1.406       .  A
C527        C528   1.397       .  A
C527        H532   1.083       .  S
C528        C529   1.406       .  A
C528        H533   1.083       .  S
C529        C530   1.410       .  A
C535        C536   1.406   1_565  A
C535        C540   1.390   1_565  A
C535        H541   1.083       .  S
C536        C537   1.402       .  A
C537        C538   1.395       .  A
C537        H542   1.083       .  S
C538        C539   1.406       .  A
C539        C540   1.400       .  A
C540        H544   1.083   1_545  S
C545        C546   1.404       .  A
C545        H551   1.084       .  S
C546        C547   1.399       .  A
C547        H552   1.083       .  S
C548        C549   1.405       .  A
C548        H553   1.083       .  S
C549        C550   1.404       .  A
C550        H554   1.083       .  S
C555        C556   1.404       .  A
C555        C560   1.399       .  A
C555        H561   1.083       .  S
C556        C557   1.404       .  A
C557        C558   1.394       .  A
C557        H562   1.084       .  S
C558        C559   1.404       .  A
C558        H563   1.083       .  S
C559        C560   1.406       .  A
C560        H564   1.083       .  S
O565       Co585   1.978       .  S
O565        C855   1.257       .  A
O566       Co727   2.015       .  S
O566        C574   1.278       .  A
O567       Co587   1.956       .  S
O568       Co729   1.873       .  S
O568        C576   1.262       .  A
O569       Co727   2.037       .  S
O569        C575   1.277       .  A
O570       Co585   2.131       .  S
O571       Co729   1.990       .  S
O571        C856   1.273   1_545  A
O572       Co587   1.989       .  S
O572        C573   1.259       .  A
C573        O847   1.259       .  A
C573        C680   1.482       .  S
C574        O853   1.270       .  A
C574        C670   1.473       .  S
O577       Co726   1.878   1_554  S
O577        C590   1.262       .  A
O578       Co586   1.957       .  S
O578        C591   1.261   1_655  A
O579       Co728   2.018   1_554  S
O579        C874   1.279       .  A
O580       Co588   1.980   1_554  S
O580        C875   1.255       .  A
O581       Co586   1.988       .  S
O581        C593   1.260       .  A
O582       Co726   1.991   1_554  S
O582        C592   1.272   1_545  A
O583       Co588   2.132   1_554  S
O584       Co728   2.035   1_554  S
Co585       O718   1.884       .  S
Co585       O723   1.978       .  S
Co585       O589   2.007   1_545  S
Co586       O707   2.015   1_554  S
Co586       O710   2.039   1_554  S
Co587       O720   2.013       .  S
Co587       O725   2.036       .  S
Co587       O871   2.022       .  S
Co588       O709   1.879       .  S
Co588       O712   1.974       .  S
O589       Co869   2.027       .  S
C590        C647   1.472       .  S
C592        O861   1.280       .  A
C592        C697   1.494       .  S
C593        O862   1.261       .  A
C593        C687   1.485       .  S
C594        C660   1.491       .  S
C594        N595   1.366       .  A
C594        N599   1.358       .  A
N595        C596   1.369       .  A
C596        N597   1.357       .  A
C596        C623   1.482       .  S
N597        C598   1.355       .  A
C598        C650   1.475       .  S
C598        N599   1.355       .  A
C600        C630   1.485       .  S
C600        N601   1.359       .  A
C600        N605   1.364       .  A
N601        C602   1.355       .  A
C602        C640   1.483       .  S
C602        N603   1.357       .  A
N603        C604   1.357       .  A
C604        N605   1.368       .  A
C604        C622   1.482       .  S
C606        C700   1.493       .  S
C606        N607   1.362   1_565  A
C606        N611   1.369       .  A
N607        C608   1.358       .  A
C608        C690   1.472       .  S
C608        N609   1.349       .  A
N609        C610   1.351   1_545  A
C610        N611   1.368       .  A
C610        C900   1.480       .  S
C612        C677   1.481       .  S
C612        N613   1.361       .  A
C612        N617   1.360       .  A
N613        C614   1.362       .  A
C614        N615   1.354       .  A
C614        C619   1.472       .  S
N615        C616   1.355       .  A
C616        C667   1.478       .  S
C616        N617   1.359       .  A
C618        C892   1.473       .  S
C618        C619   1.339       .  D
C618        H620   1.087       .  S
C619        H903   1.087       .  S
H621        C901   1.086       .  S
C622        C623   1.340       .  D
C623        H625   1.087       .  S
C626        C631   1.387       .  A
C626        H632   1.083       .  S
C627        C628   1.407       .  A
C628        C629   1.412       .  A
C628        H633   1.083       .  S
C629        C630   1.409       .  A
C629        H634   1.083       .  S
C631        H635   1.083       .  S
C636        C641   1.398       .  A
C636        H642   1.083       .  S
C637        C638   1.405       .  A
C638        C639   1.396       .  A
C638        H643   1.083       .  S
C639        C640   1.405       .  A
C639        H644   1.083       .  S
C641        H645   1.083       .  S
C646        C647   1.405       .  A
C646        C651   1.392       .  A
C646        H652   1.084       .  S
C648        C649   1.411       .  A
C648        H653   1.083       .  S
C649        H654   1.083       .  S
C650        C651   1.401       .  A
C651        H655   1.083       .  S
C656        C661   1.392       .  A
C656        H662   1.083       .  S
C657        C658   1.404       .  A
C658        C659   1.399       .  A
C658        H663   1.083       .  S
C659        C660   1.408       .  A
C659        H664   1.083       .  S
C661        H665   1.083       .  S
C666        C667   1.407       .  A
C666        C671   1.398       .  A
C666        H672   1.083       .  S
C667        C668   1.403       .  A
C668        C669   1.395       .  A
C668        H673   1.083       .  S
C669        C670   1.405       .  A
C669        H674   1.083       .  S
C670        C671   1.403       .  A
C671        H957   1.083       .  S
H675        C953   1.083       .  S
C676        C677   1.406       .  A
C676        C681   1.403       .  A
C676        H682   1.083       .  S
C677        C678   1.404       .  A
C678        C679   1.397       .  A
C678        H683   1.083       .  S
C679        C680   1.407       .  A
C679        H966   1.083       .  S
C680        C681   1.406       .  A
C681        H685   1.083       .  S
H684        C961   1.084       .  S
C686        C687   1.406       .  A
C686        C973   1.396       .  A
C686        H692   1.083       .  S
C687        C688   1.407       .  A
C688        C971   1.405       .  A
C688        H693   1.083       .  S
C689        C970   1.394   1_565  A
C689        C690   1.407   1_565  A
C689        H694   1.083       .  S
C690        C691   1.401       .  A
C691        C968   1.395       .  A
C691        H695   1.083       .  S
C696        C697   1.410   1_545  A
C696        C701   1.410       .  A
C696        H702   1.083       .  S
C697        C698   1.406       .  A
C698        C699   1.399       .  A
C698        H703   1.083       .  S
C699        C700   1.407       .  A
C699        H704   1.083       .  S
C700        C701   1.408   1_565  A
C701        H705   1.083       .  S
O706       Co726   1.990       .  S
O706        C996   1.259       .  A
O707        C715   1.277       .  A
O708       Co728   1.955       .  S
O709        C717   1.261       .  A
O710        C716   1.278       .  A
O711       Co726   2.132       .  S
O712        C997   1.271   1_545  A
O713       Co728   1.989       .  S
O713        C714   1.258       .  A
C714        O988   1.259       .  A
C714        C821   1.481       .  S
C715        O994   1.269       .  A
C715        C811   1.471       .  S
O718        C731   1.262       .  A
O719       Co727   1.961   1_455  S
O719        C732   1.262       .  A
O720       C1015   1.278       .  A
O721       Co729   1.992       .  S
O721       C1016   1.258       .  A
O722       Co727   1.988       .  S
O722        C734   1.260       .  A
O723        C733   1.271   1_545  A
O724       Co729   2.133       .  S
Co726       O730   2.005   1_545  S
Co728      O1012   2.025   1_556  S
O730      Co1010   2.038       .  S
C731        C788   1.470       .  S
C733       O1002   1.278       .  A
C733        C838   1.478       .  S
C734       O1003   1.260       .  A
C734        C828   1.481       .  S
C735        C801   1.491       .  S
C735        N736   1.367       .  A
C735        N740   1.357       .  A
N736        C737   1.369       .  A
C737        N738   1.356       .  A
C737        C764   1.482       .  S
N738        C739   1.354       .  A
C739        C791   1.474       .  S
C739        N740   1.355       .  A
C741        C771   1.485       .  S
C741        N742   1.360       .  A
C741        N746   1.366       .  A
N742        C743   1.356       .  A
C743        C781   1.483       .  S
C743        N744   1.355       .  A
N744        C745   1.355       .  A
C745        N746   1.368       .  A
C745        C763   1.481       .  S
C747        C841   1.478   1_545  S
C747        N748   1.359       .  A
C747        N752   1.356       .  A
N748        C749   1.360       .  A
C749        C831   1.482       .  S
C749        N750   1.359       .  A
N750        C751   1.362       .  A
C751        N752   1.356       .  A
C751       C1041   1.473       .  S
C753        C818   1.480       .  S
C753        N754   1.359       .  A
C753        N758   1.360       .  A
N754        C755   1.362       .  A
C755        N756   1.353       .  A
C755        C760   1.471       .  S
N756        C757   1.355       .  A
C757        C808   1.475       .  S
C757        N758   1.358       .  A
C759       C1033   1.469       .  S
C759        C760   1.337       .  D
C759        H761   1.087       .  S
C760       H1044   1.087       .  S
H762       C1042   1.087       .  S
C763        C764   1.339       .  D
C764        H766   1.087       .  S
C767        C772   1.390       .  A
C767        H773   1.083       .  S
C768        C769   1.408       .  A
C769        C770   1.412       .  A
C769        H774   1.083       .  S
C770        C771   1.409       .  A
C770        H775   1.083       .  S
C772        H776   1.083       .  S
C777        C782   1.398       .  A
C777        H783   1.083       .  S
C778        C779   1.404       .  A
C779        C780   1.394       .  A
C779        H784   1.083       .  S
C780        C781   1.406       .  A
C780        H785   1.083       .  S
C782        H786   1.083       .  S
C787        C788   1.404       .  A
C787        C792   1.393       .  A
C787        H793   1.083       .  S
C789        C790   1.412       .  A
C789        H794   1.083       .  S
C790        H795   1.083       .  S
C791        C792   1.402       .  A
C792        H796   1.083       .  S
C797        C802   1.394       .  A
C797        H803   1.083       .  S
C798        C799   1.404       .  A
C799        C800   1.399       .  A
C799        H804   1.083       .  S
C800        C801   1.409       .  A
C800        H805   1.083       .  S
C802        H806   1.083       .  S
C807        C808   1.406       .  A
C807        C812   1.396       .  A
C807        H813   1.083       .  S
C808        C809   1.403       .  A
C809        C810   1.395       .  A
C809        H814   1.083       .  S
C810        C811   1.405       .  A
C810        H815   1.084       .  S
C811        C812   1.402       .  A
C812       H1098   1.083       .  S
H816       C1094   1.083       .  S
C817        C818   1.407       .  A
C817        C822   1.404       .  A
C817        H823   1.083       .  S
C818        C819   1.403       .  A
C819        C820   1.394       .  A
C819        H824   1.083       .  S
C820        C821   1.405       .  A
C820       H1107   1.083       .  S
C821        C822   1.407       .  A
C822        H826   1.083       .  S
H825       C1102   1.083       .  S
C827        C828   1.406       .  A
C827       C1114   1.395       .  A
C827        H833   1.083       .  S
C828        C829   1.406       .  A
C829       C1112   1.403       .  A
C829        H834   1.083       .  S
C830       C1111   1.404       .  A
C830        C831   1.407       .  A
C830        H835   1.083   1_545  S
C831        C832   1.404       .  A
C832       C1109   1.395       .  A
C832        H836   1.083       .  S
C837        C838   1.405   1_545  A
C837        C842   1.400       .  A
C837        H843   1.083       .  S
C838        C839   1.406       .  A
C839        C840   1.395       .  A
C839        H844   1.083       .  S
C840        C841   1.403       .  A
C840        H845   1.083       .  S
C841        C842   1.407   1_565  A
C842        H846   1.083       .  S
O847       Co867   1.993       .  S
O848      Co1009   2.039       .  S
O848        C856   1.283       .  A
O849       Co869   1.968       .  S
O850      Co1011   1.888       .  S
O850        C858   1.263       .  A
O851      Co1009   2.026       .  S
O851        C857   1.274       .  A
O852       Co867   2.121       .  S
O853      Co1011   1.976       .  S
O854       Co869   1.980       .  S
O854        C855   1.259   1_565  A
C855        C962   1.468       .  S
C856        C952   1.498       .  S
O859      Co1008   1.881       .  S
O859        C872   1.261       .  A
O860       Co868   1.961       .  S
O860        C873   1.263   1_655  A
O861      Co1010   2.031   1_554  S
O862       Co870   1.998       .  S
O863       Co868   1.979       .  S
O863        C875   1.258   1_565  A
O864      Co1008   1.971       .  S
O864        C874   1.270       .  A
O865       Co870   2.123       .  S
O866      Co1010   2.035   1_554  S
Co867      O1000   1.879       .  S
Co867      O1005   1.973       .  S
Co867       O871   1.999       .  S
Co868       O989   2.023   1_554  S
Co868       O992   2.035   1_554  S
Co869      O1002   2.019       .  S
Co869      O1007   2.037       .  S
Co870       O991   1.887   1_554  S
Co870       O994   1.972   1_554  S
C872        C929   1.476       .  S
C874        C979   1.473       .  S
C875        C969   1.469       .  S
C876        C942   1.488       .  S
C876        N877   1.362       .  A
C876        N881   1.356       .  A
N877        C878   1.363       .  A
C878        N879   1.362       .  A
C878        C905   1.482       .  S
N879        C880   1.358       .  A
C880        C932   1.475       .  S
C880        N881   1.357       .  A
C882        C912   1.480       .  S
C882        N883   1.358       .  A
C882        N887   1.360       .  A
N883        C884   1.358       .  A
C884        C922   1.487       .  S
C884        N885   1.360       .  A
N885        C886   1.362       .  A
C886        N887   1.362       .  A
C886        C904   1.482       .  S
C888        C982   1.476       .  S
C888        N889   1.358       .  A
C888        N893   1.355       .  A
N889        C890   1.359       .  A
C890        C972   1.483       .  S
C890        N891   1.360       .  A
N891        C892   1.363       .  A
C892        N893   1.355       .  A
C894        C959   1.473   1_565  S
C894        N895   1.349       .  A
C894        N899   1.359       .  A
N895        C896   1.350       .  A
C896        N897   1.368       .  A
C896        C901   1.480       .  S
N897        C898   1.369       .  A
C898        C949   1.494       .  S
C898        N899   1.363       .  A
C900        C901   1.360       .  D
C900        H902   1.086       .  S
C904        C905   1.348       .  D
C905        H907   1.086       .  S
C908        C913   1.395       .  A
C908        H914   1.083       .  S
C909        C910   1.407       .  A
C910        C911   1.407       .  A
C910        H915   1.083       .  S
C911        C912   1.408       .  A
C911        H916   1.083       .  S
C913        H917   1.083       .  S
C918        C923   1.398       .  A
C918        H924   1.083       .  S
C919        C920   1.407       .  A
C920        C921   1.401       .  A
C920        H925   1.083       .  S
C921        C922   1.406       .  A
C921        H926   1.083       .  S
C923        H927   1.083       .  S
C928        C929   1.405       .  A
C928        C933   1.391       .  A
C928        H934   1.083       .  S
C930        C931   1.409       .  A
C930        H935   1.083       .  S
C931        H936   1.083       .  S
C932        C933   1.401       .  A
C933        H937   1.084       .  S
C938        C943   1.397       .  A
C938        H944   1.083       .  S
C939        C940   1.404       .  A
C940        C941   1.400       .  A
C940        H945   1.083       .  S
C941        C942   1.409       .  A
C941        H946   1.083       .  S
C943        H947   1.083       .  S
C948        C949   1.407   1_545  A
C948        C953   1.411       .  A
C948        H954   1.083       .  S
C949        C950   1.407       .  A
C950        C951   1.401       .  A
C950        H955   1.083       .  S
C951        C952   1.407       .  A
C951        H956   1.083       .  S
C952        C953   1.411   1_565  A
C958        C959   1.408   1_565  A
C958        C963   1.394       .  A
C958        H964   1.083       .  S
C959        C960   1.401       .  A
C960        C961   1.394       .  A
C960        H965   1.083       .  S
C961        C962   1.407       .  A
C962        C963   1.400   1_545  A
C963        H967   1.083       .  S
C968        C969   1.407       .  A
C968        H974   1.083       .  S
C969        C970   1.400       .  A
C970        H975   1.083   1_545  S
C971        C972   1.407       .  A
C971        H976   1.083       .  S
C972        C973   1.404       .  A
C973        H977   1.083       .  S
C978        C979   1.403       .  A
C978        C983   1.398       .  A
C978        H984   1.083       .  S
C979        C980   1.405       .  A
C980        C981   1.394       .  A
C980        H985   1.083       .  S
C981        C982   1.403       .  A
C981        H986   1.083       .  S
C982        C983   1.406       .  A
C983        H987   1.083       .  S
O988      Co1008   1.991   1_556  S
O989        C997   1.280       .  A
O990      Co1010   1.963       .  S
O991        C999   1.264       .  A
O992        C998   1.276       .  A
O993      Co1008   2.120   1_556  S
O995      Co1010   1.987       .  S
O995        C996   1.259   1_565  A
C996       C1103   1.480       .  S
C997       C1093   1.477       .  S
O1000      C1013   1.261       .  A
O1001     Co1009   1.962   1_455  S
O1001      C1014   1.262       .  A
O1003     Co1011   1.992       .  S
O1004     Co1009   1.986       .  S
O1004      C1016   1.257   1_565  A
O1005      C1015   1.271       .  A
O1006     Co1011   2.128       .  S
Co1008     O1012   2.000       .  S
C1013      C1070   1.474       .  S
C1015      C1120   1.471       .  S
C1016      C1110   1.481       .  S
C1017      C1083   1.488       .  S
C1017      N1018   1.362       .  A
C1017      N1022   1.356       .  A
N1018      C1019   1.363       .  A
C1019      N1020   1.361       .  A
C1019      C1046   1.481       .  S
N1020      C1021   1.358       .  A
C1021      C1073   1.478       .  S
C1021      N1022   1.358       .  A
C1023      C1053   1.480       .  S
C1023      N1024   1.358       .  A
C1023      N1028   1.360       .  A
N1024      C1025   1.357       .  A
C1025      C1063   1.485       .  S
C1025      N1026   1.360       .  A
N1026      C1027   1.362       .  A
C1027      N1028   1.362       .  A
C1027      C1045   1.481       .  S
C1029      C1123   1.474       .  S
C1029      N1030   1.358       .  A
C1029      N1034   1.353       .  A
N1030      C1031   1.360       .  A
C1031      C1113   1.481       .  S
C1031      N1032   1.361       .  A
N1032      C1033   1.362       .  A
C1033      N1034   1.352       .  A
C1035      C1100   1.479       .  S
C1035      N1036   1.359       .  A
C1035      N1040   1.359       .  A
N1036      C1037   1.362       .  A
C1037      N1038   1.356       .  A
C1037      C1042   1.473       .  S
N1038      C1039   1.356       .  A
C1039      C1090   1.478   1_545  S
C1039      N1040   1.358       .  A
C1041      C1042   1.341       .  D
C1041      H1043   1.087       .  S
C1045      C1046   1.348       .  D
C1046      H1048   1.086       .  S
C1049      C1054   1.394       .  A
C1049      H1055   1.083       .  S
C1050      C1051   1.406       .  A
C1051      C1052   1.407       .  A
C1051      H1056   1.083       .  S
C1052      C1053   1.407       .  A
C1052      H1057   1.083       .  S
C1054      H1058   1.083       .  S
C1059      C1064   1.399       .  A
C1059      H1065   1.083       .  S
C1060      C1061   1.407       .  A
C1061      C1062   1.399       .  A
C1061      H1066   1.083       .  S
C1062      C1063   1.405       .  A
C1062      H1067   1.083       .  S
C1064      H1068   1.083       .  S
C1069      C1070   1.404       .  A
C1069      C1074   1.390       .  A
C1069      H1075   1.084       .  S
C1071      C1072   1.411       .  A
C1071      H1076   1.083       .  S
C1072      H1077   1.083       .  S
C1073      C1074   1.402       .  A
C1074      H1078   1.083       .  S
C1079      C1084   1.398       .  A
C1079      H1085   1.083       .  S
C1080      C1081   1.404       .  A
C1081      C1082   1.401       .  A
C1081      H1086   1.083       .  S
C1082      C1083   1.409       .  A
C1082      H1087   1.083       .  S
C1084      H1088   1.083       .  S
C1089      C1090   1.406   1_545  A
C1089      C1094   1.399       .  A
C1089      H1095   1.083       .  S
C1090      C1091   1.404       .  A
C1091      C1092   1.396       .  A
C1091      H1096   1.083       .  S
C1092      C1093   1.406       .  A
C1092      H1097   1.083       .  S
C1093      C1094   1.404   1_565  A
C1099      C1100   1.406   1_565  A
C1099      C1104   1.403   1_565  A
C1099      H1105   1.083       .  S
C1100      C1101   1.403       .  A
C1101      C1102   1.394       .  A
C1101      H1106   1.083       .  S
C1102      C1103   1.405       .  A
C1103      C1104   1.406       .  A
C1104      H1108   1.083   1_545  S
C1109      C1110   1.405       .  A
C1109      H1115   1.083       .  S
C1110      C1111   1.406       .  A
C1111      H1116   1.083   1_545  S
C1112      C1113   1.406       .  A
C1112      H1117   1.083       .  S
C1113      C1114   1.404       .  A
C1114      H1118   1.083       .  S
C1119      C1120   1.402       .  A
C1119      C1124   1.397       .  A
C1119      H1125   1.083       .  S
C1120      C1121   1.406       .  A
C1121      C1122   1.394       .  A
C1121      H1126   1.083       .  S
C1122      C1123   1.402       .  A
C1122      H1127   1.083       .  S
C1123      C1124   1.407       .  A
C1124      H1128   1.083       .  S
