geometry optimzed in LAMMPS
_audit_creation_date              2020-12-01 
_audit_creation_method            'lammps2cif' 
_symmetry_space_group_name_H-M    'P1' 
_symmetry_Int_Tables_number       1 
_symmetry_cell_setting            triclinic 
loop_ 
_symmetry_equiv_pos_as_xyz 
  x,y,z 
_cell_length_a                    49.30649556 
_cell_length_b                    49.02271328124462 
_cell_length_c                    43.392599145909976 
_cell_angle_alpha                 89.65337812154986 
_cell_angle_beta                  89.84248947189558 
_cell_angle_gamma                 89.84454848334613 
loop_ 
_atom_site_label 
_atom_site_type_symbol 
_atom_site_fract_x 
_atom_site_fract_y 
_atom_site_fract_z 
_atom_site_charge 
C1          C  0.31016926  0.15373313  0.00047658     0.03600
C2          C  0.33759370  0.16159287  0.99811423    -0.12600
C3          C  0.34513567  0.18924934  0.50033752     0.01100
C4          C  0.32467024  0.20903873  0.50373805    -0.11100
C5          C  0.29726481  0.20168740  0.50472908     0.03600
C6          C  0.29022461  0.17406477  0.00401509    -0.10500
H7          H  0.35294406  0.14628001  0.99371600     0.09200
H8          H  0.32996234  0.23038181  0.50576767     0.06700
H9          H  0.26901889  0.16849766  0.00561617     0.06500
C10         C  0.45133669  0.40644635  0.25159839     0.03600
C11         C  0.42377761  0.41421023  0.25130884    -0.12600
C12         C  0.41628513  0.44195791  0.25022087     0.01100
C13         C  0.43665465  0.46183446  0.24817132    -0.11100
C14         C  0.46406532  0.45449067  0.24868496     0.03600
C15         C  0.47125982  0.42693422  0.25074947    -0.10500
H16         H  0.40814496  0.39877399  0.25167979     0.09200
H17         H  0.43123300  0.48316082  0.24562755     0.06700
H18         H  0.49256126  0.42155413  0.25193969     0.06500
C19         C  0.16533040  0.29693206  0.50236403     0.03600
C20         C  0.18570972  0.27693362  0.50439127    -0.12600
C21         C  0.21317369  0.28424262  0.50379739     0.01100
C22         C  0.22019198  0.31188062  0.00140728    -0.11100
C23         C  0.20018179  0.33224887  0.99861316     0.03600
C24         C  0.17270933  0.32448481  0.49901149    -0.10500
H25         H  0.18017343  0.25557929  0.50561216     0.09200
H26         H  0.24140134  0.31745616  0.00238961     0.06700
H27         H  0.15699117  0.33985457  0.49691082     0.06500
O28         O  0.21237539  0.48776543  0.24919796    -0.71300
O29         O  0.28496907  0.46169609  0.24919589    -0.71600
O30         O  0.24835025  0.47501200  0.29289714    -0.71400
O31         O  0.24886035  0.47434493  0.20553618    -0.71400
O32         O  0.26258389  0.01643986  0.20475807    -0.71400
O33         O  0.26394257  0.01646499  0.29242855    -0.71400
O34         O  0.29956601  0.00349185  0.24831576    -0.71300
O35         O  0.22698759  0.02953404  0.24895031    -0.71500
V36         V  0.24893151  0.47553086  0.24919640     1.35200
V37         V  0.26300312  0.01567768  0.24861050     1.35200
C38         C  0.20730230  0.01307157  0.24908698     0.77900
C39         C  0.30462146  0.47819726  0.24879800     0.78000
C40         C  0.25611657  0.49577017  0.30749704     0.77800
C41         C  0.25561293  0.49528082  0.19026931     0.77800
O42         O  0.21998888  0.46492088  0.00134082    -0.71300
O43         O  0.24732031  0.03722238  0.49563982    -0.71600
O44         O  0.23336720  0.99886322  0.45489122    -0.71400
O45         O  0.23407287  0.00356877  0.04229915    -0.71400
O46         O  0.27312023  0.48292309  0.04282606    -0.71400
O47         O  0.27613721  0.48818628  0.45552790    -0.71400
O48         O  0.28820126  0.02169334  0.00215419    -0.71300
O49         O  0.26102590  0.44943809  0.49593825    -0.71500
V50         V  0.23438616  0.00085204  0.99859370     1.35200
V51         V  0.27389078  0.48579958  0.99915107     1.35200
C52         C  0.23586748  0.44479802  0.99826240     0.77900
C53         C  0.27240633  0.04184633  0.99860850     0.78000
C54         C  0.25500959  0.49376080  0.44026054     0.77800
C55         C  0.25354306  0.49342875  0.05748240     0.77800
C56         C  0.06044591  0.08466909  0.24799601     0.03600
C57         C  0.04039057  0.06465074  0.24484328    -0.12600
C58         C  0.04727463  0.03701495  0.24286974     0.01100
C59         C  0.07467054  0.02939245  0.24276749    -0.11100
C60         C  0.09523519  0.04894647  0.24644785     0.03600
C61         C  0.08786546  0.07667316  0.24886757    -0.10500
H62         H  0.01921736  0.07054061  0.24373122     0.09200
H63         H  0.07985401  0.00804798  0.24043553     0.06700
H64         H  0.10333664  0.09199220  0.25227255     0.06500
O65         O  0.48423711  0.23736682  0.20824381    -0.71300
O66         O  0.48589582  0.23824326  0.29559625    -0.71600
O67         O  0.47171577  0.27421696  0.25191714    -0.71400
O68         O  0.49857229  0.20143605  0.25249446    -0.71400
O69         O  0.03971408  0.21666479  0.24769518    -0.71400
O70         O  0.01315553  0.28916937  0.25290167    -0.71400
O71         O  0.02813820  0.25067932  0.29427017    -0.71300
O72         O  0.02452895  0.25507991  0.20675902    -0.71500
V73         V  0.48589570  0.23808083  0.25197597     1.35200
V74         V  0.02559857  0.25262749  0.25048320     1.35200
C75         C  0.00389354  0.24651403  0.19254232     0.77900
C76         C  0.00738576  0.24412045  0.30984690     0.78000
C77         C  0.48798070  0.29410099  0.25255224     0.77800
C78         C  0.02371155  0.19666905  0.24992502     0.77800
O79         O  0.46127389  0.25274646  0.00115751    -0.71300
O80         O  0.03397962  0.27848726  0.49832059    -0.71600
O81         O  0.49691177  0.26383532  0.45641898    -0.71400
O82         O  0.49834472  0.26758861  0.04372523    -0.71400
O83         O  0.00873472  0.22448431  0.04585593    -0.71400
O84         O  0.01586883  0.22377786  0.45853969    -0.71400
O85         O  0.04840331  0.23703876  0.00577911    -0.71300
O86         O  0.47618776  0.21104351  0.49912347    -0.71500
V87         V  0.49788584  0.26491530  0.50001611     1.35200
V88         V  0.01203685  0.22484136  0.50223816     1.35200
C89         C  0.45636570  0.22745294  0.49967210     0.77900
C90         C  0.05354551  0.26211407  0.50230711     0.78000
C91         C  0.00674289  0.24345370  0.44262442     0.77800
C92         C  0.00317968  0.24644910  0.05963282     0.77800
C93         C  0.01979531  0.26494661  0.14177447    -0.20900
C94         C  0.00289875  0.24707259  0.15844593    -0.08900
C95         C  0.48552317  0.22954595  0.14216081     0.29900
C96         C  0.48575122  0.22944030  0.10993029    -0.20900
C97         C  0.00259786  0.24731982  0.09345881    -0.08900
C98         C  0.01943132  0.26532736  0.10953102     0.30000
F99         F  0.03621587  0.28253495  0.09402083    -0.19400
H100        H  0.03327676  0.27869744  0.15372854     0.18300
H101        H  0.47264515  0.21546353  0.09775832     0.18300
F102        F  0.46885626  0.21198534  0.15730267    -0.19400
C103        C  0.03088827  0.23616076  0.39268931    -0.20900
C104        C  0.00705241  0.24276747  0.40876707    -0.08900
C105        C  0.48352894  0.24956083  0.39225627     0.29900
C106        C  0.48381895  0.24958300  0.36010213    -0.20900
C107        C  0.00775299  0.24360867  0.34385342    -0.08900
C108        C  0.03140868  0.23696210  0.36039799     0.30000
F109        F  0.05479915  0.23074287  0.34541092    -0.19400
H110        H  0.04921188  0.23098516  0.40516360     0.18300
H111        H  0.46536777  0.25472941  0.34785411     0.18300
F112        F  0.46011615  0.25569133  0.40727179    -0.19400
C113        C  0.02085935  0.14863359  0.26809067    -0.20900
C114        C  0.03406482  0.16842423  0.25013280    -0.08900
C115        C  0.05708360  0.16094741  0.23287934     0.29900
C116        C  0.06601399  0.13380695  0.23280721    -0.20900
C117        C  0.05239298  0.11381749  0.25025446    -0.08900
C118        C  0.03010585  0.12170598  0.26858375     0.30000
F119        F  0.01742776  0.10346857  0.28732928    -0.19400
H120        H  0.00350667  0.15412871  0.28213668     0.18300
H121        H  0.08311985  0.12826428  0.21841505     0.18300
F122        F  0.07026391  0.17959753  0.21513897    -0.19400
C123        C  0.15880155  0.00719451  0.26331922    -0.20900
C124        C  0.17901248  0.02297624  0.24918188    -0.08900
C125        C  0.17181202  0.04785224  0.23508591     0.29900
C126        C  0.14464281  0.05618516  0.23427560    -0.20900
C127        C  0.12422298  0.04025599  0.24816748    -0.08900
C128        C  0.13181592  0.01587107  0.26338401     0.30000
F129        F  0.11340125  0.50066835  0.27915054    -0.19400
H130        H  0.16400219  0.48825512  0.27489994     0.18300
H131        H  0.13955946  0.07490569  0.22222545     0.18300
F132        F  0.19085905  0.06365824  0.22115893    -0.19400
C133        C  0.24513656  0.01739705  0.13979212    -0.20900
C134        C  0.25524408  0.49490898  0.15634342    -0.08900
C135        C  0.26458187  0.47192252  0.14023617     0.28100
C136        C  0.26416816  0.47168436  0.10803062    -0.20900
C137        C  0.25363693  0.49395696  0.09144927    -0.08900
C138        C  0.24390746  0.01680444  0.10757983     0.30000
F139        F  0.23394091  0.03882373  0.09219038    -0.19400
H140        H  0.23775910  0.03523140  0.15186602     0.18300
H141        H  0.27178196  0.45392546  0.09600449     0.18300
F142        F  0.27473283  0.44998677  0.15562757    -0.19400
C143        C  0.23165313  0.48939990  0.38964300    -0.20900
C144        C  0.25554335  0.49438243  0.40622744    -0.08900
C145        C  0.27964727  0.50015320  0.38996933     0.29900
C146        C  0.27960926  0.50122628  0.35773385    -0.20900
C147        C  0.25581665  0.49574783  0.34132729    -0.08900
C148        C  0.23184826  0.48968581  0.35743603     0.30000
F149        F  0.20851722  0.48459755  0.34197916    -0.19400
H150        H  0.21288356  0.48489587  0.40163183     0.18300
H151        H  0.29826255  0.50580725  0.34553452     0.18300
F152        F  0.30310340  0.50523792  0.40517826    -0.19400
C153        C  0.19319270  0.38156379  0.51242320    -0.20900
C154        C  0.20812216  0.36155493  0.99649221    -0.08900
C155        C  0.23123757  0.36974634  0.97963049     0.29900
C156        C  0.24002519  0.39680050  0.98043534    -0.20900
C157        C  0.22552787  0.41653651  0.99704270    -0.08900
C158        C  0.20156261  0.40884131  0.51239645     0.30000
F159        F  0.18681163  0.42740111  0.52843243    -0.19400
H160        H  0.17541146  0.37601335  0.52570560     0.18300
H161        H  0.25812384  0.40241088  0.96771500     0.18300
F162        F  0.24520055  0.35177391  0.96191836    -0.19400
C163        C  0.11828404  0.29891422  0.48080204    -0.20900
C164        C  0.13635354  0.28885388  0.50317180    -0.08900
C165        C  0.12666003  0.27059854  0.02580536     0.29900
C166        C  0.09965630  0.26198457  0.02537131    -0.20900
C167        C  0.08174304  0.27188101  0.50285904    -0.08900
C168        C  0.09115777  0.29059115  0.48067817     0.30000
F169        F  0.07443886  0.29987361  0.45810857    -0.19400
H170        H  0.12534181  0.31275553  0.46299230     0.18300
H171        H  0.09261162  0.24780292  0.04285799     0.18300
F172        F  0.14316003  0.26147588  0.04867161    -0.19400
C173        C  0.00589151  0.47395962  0.22466630    -0.20900
C174        C  0.48524825  0.47569362  0.24693691    -0.08900
C175        C  0.48493468  0.99777658  0.26739971     0.29900
C176        C  0.50499710  0.01772662  0.26558298    -0.20900
C177        C  0.02570149  0.01606763  0.24335190    -0.08900
C178        C  0.02593495  0.49402724  0.22273898     0.30000
F179        F  0.04514285  0.49220078  0.20037358    -0.19400
H180        H  0.00625674  0.45719961  0.20850979     0.18300
H181        H  0.50468032  0.03426697  0.28202786     0.18300
F182        F  0.46570395  0.99960342  0.28975082    -0.19400
C183        C  0.36792060  0.43649796  0.23319386    -0.20900
C184        C  0.38731596  0.45048965  0.25074413    -0.08900
C185        C  0.37892129  0.47320321  0.26818212     0.29900
C186        C  0.35206363  0.48220110  0.26706430    -0.20900
C187        C  0.33284010  0.46832015  0.24941001    -0.08900
C188        C  0.34084709  0.44517610  0.23270408     0.30000
F189        F  0.32274092  0.43159633  0.21501399    -0.19400
H190        H  0.37381655  0.41917741  0.21931160     0.18300
H191        H  0.34612762  0.99978520  0.28053071     0.18300
F192        F  0.39650592  0.48641453  0.28688979    -0.19400
C193        C  0.48268388  0.36924612  0.23451160    -0.20900
C194        C  0.45979140  0.37719856  0.25174648    -0.08900
C195        C  0.44591090  0.35714974  0.26911590     0.29900
C196        C  0.45477508  0.32994771  0.26884306    -0.20900
C197        C  0.47805370  0.32247143  0.25219749    -0.08900
C198        C  0.49199862  0.34238822  0.23513255     0.30000
F199        F  0.01431589  0.33574828  0.21835239    -0.19400
H200        H  0.99347648  0.38385635  0.22028855     0.18300
H201        H  0.44394004  0.31485762  0.28239417     0.18300
F202        F  0.42450613  0.36386059  0.28730265    -0.19400
C203        C  0.25584110  0.26397108  0.48291084    -0.20900
C204        C  0.23470032  0.26306634  0.50464004    -0.08900
C205        C  0.23435722  0.24189799  0.02670481     0.29900
C206        C  0.25477468  0.22199475  0.02677541    -0.20900
C207        C  0.27591967  0.22300160  0.50504840    -0.08900
C208        C  0.27623219  0.24416299  0.48302205     0.30000
F209        F  0.29579762  0.24518570  0.46096697    -0.19400
H210        H  0.25630783  0.27985197  0.46544359     0.18300
H211        H  0.25426442  0.20593266  0.04402181     0.18300
F212        F  0.21470222  0.24085420  0.04863768    -0.19400
C213        C  0.42162571  0.19235098  0.51306624    -0.20900
C214        C  0.42821803  0.21723256  0.49875665    -0.08900
C215        C  0.40771375  0.23216271  0.98382861     0.29900
C216        C  0.38110604  0.22240501  0.98349218    -0.20900
C217        C  0.37412271  0.19794415  0.49875296    -0.08900
C218        C  0.39484312  0.18291237  0.51349270     0.30000
F219        F  0.38916135  0.15978296  0.52955975    -0.19400
H220        H  0.43712775  0.18061347  0.52486746     0.18300
H221        H  0.36588622  0.23416527  0.97128155     0.18300
F222        F  0.41345646  0.25595754  0.96906041    -0.19400
C223        C  0.27816304  0.11759265  0.48240302    -0.20900
C224        C  0.30185980  0.12455272  0.99852071    -0.08900
C225        C  0.31647006  0.10363820  0.01361877     0.29900
C226        C  0.30714972  0.07666465  0.01296458    -0.20900
C227        C  0.28289211  0.07008643  0.99785388    -0.08900
C228        C  0.26859895  0.09081964  0.48230080     0.30000
F229        F  0.24549342  0.08520909  0.46664522    -0.19400
H230        H  0.26682155  0.13299848  0.46987437     0.18300
H231        H  0.31847598  0.06102650  0.02516200     0.18300
F232        F  0.33902566  0.10933482  0.03020713    -0.19400
C233        C  0.31016951  0.15373371  0.50047651     0.03600
C234        C  0.33759389  0.16159357  0.49811411    -0.12600
C235        C  0.34513565  0.18924859  0.00033786     0.01100
C236        C  0.32467032  0.20903806  0.00373853    -0.11100
C237        C  0.29726487  0.20168688  0.00472952     0.03600
C238        C  0.29022472  0.17406523  0.50401479    -0.10500
H239        H  0.35294430  0.14628074  0.49371598     0.09200
H240        H  0.32996252  0.23038114  0.00576823     0.06700
H241        H  0.26901903  0.16849795  0.50561577     0.06500
C242        C  0.45133568  0.40644663  0.75159624     0.03600
C243        C  0.42377657  0.41421033  0.75130578    -0.12600
C244        C  0.41628396  0.44195794  0.75021735     0.01100
C245        C  0.43665336  0.46183460  0.74816786    -0.11100
C246        C  0.46406407  0.45449100  0.74868220     0.03600
C247        C  0.47125870  0.42693461  0.75074743    -0.10500
H248        H  0.40814398  0.39877406  0.75167657     0.09200
H249        H  0.43123155  0.48316095  0.74562394     0.06700
H250        H  0.49256013  0.42155471  0.75193846     0.06500
C251        C  0.16533056  0.29693132  0.00236258     0.03600
C252        C  0.18570990  0.27693293  0.00439043    -0.12600
C253        C  0.21317386  0.28424201  0.00379692     0.01100
C254        C  0.22019183  0.31188127  0.50140797    -0.11100
C255        C  0.20018160  0.33224959  0.49861449     0.03600
C256        C  0.17270951  0.32448405  0.99900978    -0.10500
H257        H  0.18017368  0.25557858  0.00561150     0.09200
H258        H  0.24140119  0.31745677  0.50238998     0.06700
H259        H  0.15699138  0.33985376  0.99690869     0.06500
O260        O  0.21237405  0.48776570  0.74920024    -0.71300
O261        O  0.28496749  0.46169539  0.74919397    -0.71600
O262        O  0.24835062  0.47501134  0.79289729    -0.71400
O263        O  0.24885694  0.47434507  0.70553641    -0.71400
O264        O  0.26258377  0.01643889  0.70475783    -0.71400
O265        O  0.26394125  0.01646495  0.79242840    -0.71400
O266        O  0.29956491  0.00349107  0.74831617    -0.71300
O267        O  0.22698684  0.02953415  0.74894951    -0.71500
V268        V  0.24893003  0.47553063  0.74919658     1.35200
V269        V  0.26300223  0.01567727  0.74861032     1.35200
C270        C  0.20730131  0.01307197  0.74908800     0.77900
C271        C  0.30462004  0.47819640  0.74879693     0.78000
C272        C  0.25611629  0.49576981  0.80749704     0.77800
C273        C  0.25561116  0.49528019  0.69026906     0.77800
O274        O  0.21998908  0.46492178  0.50134221    -0.71300
O275        O  0.24731946  0.03722172  0.99564100    -0.71600
O276        O  0.23336729  0.99886331  0.95489105    -0.71400
O277        O  0.23407414  0.00357089  0.54229914    -0.71400
O278        O  0.27312030  0.48292257  0.54282588    -0.71400
O279        O  0.27613700  0.48818504  0.95552800    -0.71400
O280        O  0.28820179  0.02169377  0.50215498    -0.71300
O281        O  0.26102604  0.44943745  0.99593920    -0.71500
V282        V  0.23438666  0.00085294  0.49859381     1.35200
V283        V  0.27389101  0.48580003  0.49915092     1.35200
C284        C  0.23586739  0.44479880  0.49826273     0.77900
C285        C  0.27240711  0.04184686  0.49860828     0.78000
C286        C  0.25500961  0.49376015  0.94026052     0.77800
C287        C  0.25354374  0.49342943  0.55748206     0.77800
C288        C  0.06044452  0.08466931  0.74799732     0.03600
C289        C  0.04038940  0.06465086  0.74484397    -0.12600
C290        C  0.04727366  0.03701516  0.74287021     0.01100
C291        C  0.07466963  0.02939283  0.74276842    -0.11100
C292        C  0.09523411  0.04894696  0.74644936     0.03600
C293        C  0.08786413  0.07667358  0.74886923    -0.10500
H294        H  0.01921615  0.07054060  0.74373154     0.09200
H295        H  0.07985326  0.00804838  0.74043632     0.06700
H296        H  0.10333514  0.09199272  0.75227452     0.06500
O297        O  0.48423485  0.23736694  0.70824371    -0.71300
O298        O  0.48589341  0.23824333  0.79559625    -0.71600
O299        O  0.47171377  0.27421715  0.75191707    -0.71400
O300        O  0.49856975  0.20143595  0.75249445    -0.71400
O301        O  0.03971162  0.21666455  0.74769513    -0.71400
O302        O  0.01315355  0.28916915  0.75290186    -0.71400
O303        O  0.02813580  0.25067889  0.79427021    -0.71300
O304        O  0.02452676  0.25507982  0.70675909    -0.71500
V305        V  0.48589337  0.23808087  0.75197593     1.35200
V306        V  0.02559630  0.25262724  0.75048325     1.35200
C307        C  0.00389137  0.24651405  0.69254227     0.77900
C308        C  0.00738327  0.24412024  0.80984690     0.78000
C309        C  0.48797892  0.29410101  0.75255243     0.77800
C310        C  0.02370904  0.19666888  0.74992504     0.77800
O311        O  0.46127394  0.25274723  0.50115634    -0.71300
O312        O  0.03397951  0.27848677  0.99832001    -0.71600
O313        O  0.49691072  0.26383477  0.95641930    -0.71400
O314        O  0.49834391  0.26758938  0.54372494    -0.71400
O315        O  0.00873383  0.22448498  0.54585605    -0.71400
O316        O  0.01586789  0.22377745  0.95853940    -0.71400
O317        O  0.04840328  0.23703928  0.50578024    -0.71300
O318        O  0.47618779  0.21104279  0.99912409    -0.71500
V319        V  0.49788573  0.26491465  0.00001642     1.35200
V320        V  0.01203684  0.22484080  0.00223797     1.35200
C321        C  0.45636569  0.22745216  0.99967314     0.77900
C322        C  0.05354547  0.26211358  0.00230602     0.78000
C323        C  0.00674158  0.24345330  0.94262443     0.77800
C324        C  0.00317843  0.24644980  0.55963273     0.77800
C325        C  0.01979320  0.26494711  0.64177465    -0.20900
C326        C  0.00289660  0.24707294  0.65844587    -0.08900
C327        C  0.48552105  0.22954663  0.64216048     0.29900
C328        C  0.48574941  0.22944111  0.60992994    -0.20900
C329        C  0.00259600  0.24732062  0.59345872    -0.08900
C330        C  0.01942938  0.26532807  0.60953120     0.30000
F331        F  0.03621411  0.28253565  0.59402127    -0.19400
H332        H  0.03327465  0.27869782  0.65372891     0.18300
H333        H  0.47264346  0.21546436  0.59775774     0.18300
F334        F  0.46885401  0.21198596  0.65730210    -0.19400
C335        C  0.03088616  0.23615994  0.89268905    -0.20900
C336        C  0.00705062  0.24276721  0.90876708    -0.08900
C337        C  0.48352732  0.24956119  0.89225653     0.29900
C338        C  0.48381708  0.24958334  0.86010237    -0.20900
C339        C  0.00775061  0.24360842  0.84385343    -0.08900
C340        C  0.03140630  0.23696137  0.86039774     0.30000
F341        F  0.05479652  0.23074174  0.84541043    -0.19400
H342        H  0.04920974  0.23098387  0.90516311     0.18300
H343        H  0.46536598  0.25473041  0.84785449     0.18300
F344        F  0.46011492  0.25569263  0.90727235    -0.19400
C345        C  0.02085683  0.14863342  0.76809081    -0.20900
C346        C  0.03406235  0.16842409  0.75013303    -0.08900
C347        C  0.05708157  0.16094748  0.73288024     0.29900
C348        C  0.06601236  0.13380716  0.73280857    -0.20900
C349        C  0.05239132  0.11381764  0.75025567    -0.08900
C350        C  0.03010375  0.12170595  0.76858439     0.30000
F351        F  0.01742558  0.10346845  0.78732977    -0.19400
H352        H  0.00350386  0.15412841  0.78213642     0.18300
H353        H  0.08311852  0.12826463  0.71841682     0.18300
F354        F  0.07026201  0.17959766  0.71514007    -0.19400
C355        C  0.15880062  0.00719522  0.76332080    -0.20900
C356        C  0.17901156  0.02297699  0.74918351    -0.08900
C357        C  0.17181107  0.04785315  0.73508786     0.29900
C358        C  0.14464183  0.05618605  0.73427764    -0.20900
C359        C  0.12422198  0.04025670  0.74816924    -0.08900
C360        C  0.13181496  0.01587172  0.76338559     0.30000
F361        F  0.11340021  0.50066874  0.77915206    -0.19400
H362        H  0.16400117  0.48825562  0.77490139     0.18300
H363        H  0.13955846  0.07490670  0.72222773     0.18300
F364        F  0.19085811  0.06365936  0.72116118    -0.19400
C365        C  0.24516173  0.01740785  0.63979013    -0.20900
C366        C  0.25524257  0.49490804  0.65634264    -0.08900
C367        C  0.26455389  0.47191026  0.64023586     0.28100
C368        C  0.26414156  0.47167258  0.60803026    -0.20900
C369        C  0.25363745  0.49395760  0.59144840    -0.08900
C370        C  0.24393360  0.01681642  0.60757776     0.30000
F371        F  0.23399363  0.03884704  0.59218671    -0.19400
H372        H  0.23780418  0.03525095  0.65186298     0.18300
H373        H  0.27173474  0.45390474  0.59600440     0.18300
F374        F  0.27467792  0.44996204  0.65562752    -0.19400
C375        C  0.23165315  0.48939946  0.88964302    -0.20900
C376        C  0.25554346  0.49438166  0.90622741    -0.08900
C377        C  0.27964745  0.50015206  0.88996928     0.29900
C378        C  0.27960936  0.50122535  0.85773377    -0.20900
C379        C  0.25581658  0.49574739  0.84132729    -0.08900
C380        C  0.23184818  0.48968551  0.85743608     0.30000
F381        F  0.20851701  0.48459751  0.84197932    -0.19400
H382        H  0.21288356  0.48489563  0.90163189     0.18300
H383        H  0.29826267  0.50580607  0.84553440     0.18300
F384        F  0.30310372  0.50523623  0.90517820    -0.19400
C385        C  0.19319249  0.38156307  0.01242141    -0.20900
C386        C  0.20812194  0.36155566  0.49649346    -0.08900
C387        C  0.23123688  0.36974708  0.47963092     0.29900
C388        C  0.24002445  0.39680126  0.48043539    -0.20900
C389        C  0.22552762  0.41653730  0.49704327    -0.08900
C390        C  0.20156239  0.40884057  0.01239492     0.30000
F391        F  0.18681093  0.42740038  0.02843036    -0.19400
H392        H  0.17541091  0.37601268  0.02570320     0.18300
H393        H  0.25812277  0.40241161  0.46771437     0.18300
F394        F  0.24519943  0.35177463  0.46191841    -0.19400
C395        C  0.11828406  0.29891367  0.98080061    -0.20900
C396        C  0.13635364  0.28885319  0.00317024    -0.08900
C397        C  0.12665998  0.27059913  0.52580686     0.29900
C398        C  0.09965627  0.26198507  0.52537272    -0.20900
C399        C  0.08174302  0.27188055  0.00285774    -0.08900
C400        C  0.09115772  0.29059078  0.98067691     0.30000
F401        F  0.07443876  0.29987334  0.95810741    -0.19400
H402        H  0.12534184  0.31275495  0.96299085     0.18300
H403        H  0.09261160  0.24780340  0.54285935     0.18300
F404        F  0.14315997  0.26147644  0.54867314    -0.19400
C405        C  0.00589064  0.47396021  0.72466445    -0.20900
C406        C  0.48524695  0.47569403  0.74693474    -0.08900
C407        C  0.48493297  0.99777688  0.76739772     0.29900
C408        C  0.50499559  0.01772676  0.76558186    -0.20900
C409        C  0.02570058  0.01606779  0.74335161    -0.08900
C410        C  0.02593430  0.49402770  0.72273808     0.30000
F411        F  0.04514268  0.49220148  0.70037315    -0.19400
H412        H  0.00625607  0.45720043  0.70850767     0.18300
H413        H  0.50467847  0.03426700  0.78202689     0.18300
F414        F  0.46570166  0.99960373  0.78974819    -0.19400
C415        C  0.36791938  0.43649799  0.73319042    -0.20900
C416        C  0.38731478  0.45048943  0.75074087    -0.08900
C417        C  0.37892008  0.47320240  0.76817977     0.29900
C418        C  0.35206229  0.48219991  0.76706280    -0.20900
C419        C  0.33283868  0.46831926  0.74940833    -0.08900
C420        C  0.34084576  0.44517583  0.73270130     0.30000
F421        F  0.32273960  0.43159650  0.71501078    -0.19400
H422        H  0.37381541  0.41917780  0.71930753     0.18300
H423        H  0.34612641  0.99978356  0.78052995     0.18300
F424        F  0.39650486  0.48641347  0.78688750    -0.19400
C425        C  0.48268369  0.36924624  0.73451179    -0.20900
C426        C  0.45979048  0.37719887  0.75174531    -0.08900
C427        C  0.44590920  0.35715023  0.76911420     0.29900
C428        C  0.45477316  0.32994811  0.76884187    -0.20900
C429        C  0.47805234  0.32247159  0.75219749    -0.08900
C430        C  0.49199826  0.34238829  0.73513345     0.30000
F431        F  0.01431603  0.33574816  0.71835415    -0.19400
H432        H  0.99347674  0.38385622  0.72028866     0.18300
H433        H  0.44393742  0.31485813  0.78239242     0.18300
F434        F  0.42450380  0.36386129  0.78729988    -0.19400
C435        C  0.25584102  0.26397016  0.98291036    -0.20900
C436        C  0.23470054  0.26306587  0.00463994    -0.08900
C437        C  0.23435663  0.24189785  0.52670418     0.29900
C438        C  0.25477410  0.22199461  0.52677456    -0.20900
C439        C  0.27591988  0.22300119  0.00504877    -0.08900
C440        C  0.27623210  0.24416207  0.98302178     0.30000
F441        F  0.29579716  0.24518420  0.96096625    -0.19400
H442        H  0.25630745  0.27985065  0.96544263     0.18300
H443        H  0.25426358  0.20593215  0.54402050     0.18300
F444        F  0.21470134  0.24085352  0.54863670    -0.19400
C445        C  0.42162566  0.19235010  0.01306714    -0.20900
C446        C  0.42821805  0.21723172  0.99875772    -0.08900
C447        C  0.40771364  0.23216354  0.48382766     0.29900
C448        C  0.38110591  0.22240585  0.48349154    -0.20900
C449        C  0.37412274  0.19794327  0.99875346    -0.08900
C450        C  0.39484307  0.18291146  0.01349336     0.30000
F451        F  0.38916120  0.15978200  0.02956026    -0.19400
H452        H  0.43712769  0.18061255  0.02486841     0.18300
H453        H  0.36588598  0.23416607  0.47128101     0.18300
F454        F  0.41345621  0.25595837  0.46905935    -0.19400
C455        C  0.27816197  0.11759229  0.98240395    -0.20900
C456        C  0.30186030  0.12455328  0.49852066    -0.08900
C457        C  0.31647024  0.10363898  0.51361947     0.29900
C458        C  0.30715006  0.07666536  0.51296522    -0.20900
C459        C  0.28289300  0.07008691  0.49785358    -0.08900
C460        C  0.26859766  0.09081935  0.98230193     0.30000
F461        F  0.24549156  0.08520902  0.96664730    -0.19400
H462        H  0.26682016  0.13299825  0.96987580     0.18300
H463        H  0.31847595  0.06102736  0.52516337     0.18300
F464        F  0.33902524  0.10933594  0.53020873    -0.19400
C465        C  0.31016916  0.65373317  0.00047638     0.03600
C466        C  0.33759361  0.66159286  0.99811403    -0.12600
C467        C  0.34513565  0.68924926  0.50033738     0.01100
C468        C  0.32467028  0.70903869  0.50373801    -0.11100
C469        C  0.29726483  0.70168741  0.50472909     0.03600
C470        C  0.29022457  0.67406485  0.00401501    -0.10500
H471        H  0.35294395  0.64627999  0.99371569     0.09200
H472        H  0.32996245  0.73038174  0.50576766     0.06700
H473        H  0.26901883  0.66849775  0.00561612     0.06500
C474        C  0.45133671  0.90644636  0.25159840     0.03600
C475        C  0.42377764  0.91421023  0.25130884    -0.12600
C476        C  0.41628515  0.94195792  0.25022083     0.01100
C477        C  0.43665465  0.96183444  0.24817114    -0.11100
C478        C  0.46406532  0.95449068  0.24868482     0.03600
C479        C  0.47125983  0.92693423  0.25074947    -0.10500
H480        H  0.40814501  0.89877399  0.25167981     0.09200
H481        H  0.43123295  0.98316083  0.24562731     0.06700
H482        H  0.49256126  0.92155416  0.25193976     0.06500
C483        C  0.16533043  0.79693212  0.50236399     0.03600
C484        C  0.18570976  0.77693367  0.50439123    -0.12600
C485        C  0.21317374  0.78424268  0.50379737     0.01100
C486        C  0.22019192  0.81188073  0.00140751    -0.11100
C487        C  0.20018169  0.83224893  0.99861331     0.03600
C488        C  0.17270936  0.82448486  0.49901150    -0.10500
H489        H  0.18017347  0.75557934  0.50561206     0.09200
H490        H  0.24140126  0.81745631  0.00238982     0.06700
H491        H  0.15699119  0.83985461  0.49691085     0.06500
O492        O  0.21237534  0.98776537  0.24919814    -0.71300
O493        O  0.28496902  0.96169601  0.24919585    -0.71600
O494        O  0.24835036  0.97501202  0.29289719    -0.71400
O495        O  0.24886021  0.97434481  0.20553623    -0.71400
O496        O  0.26258386  0.51644005  0.20475815    -0.71400
O497        O  0.26394271  0.51646488  0.29242861    -0.71400
O498        O  0.29956608  0.50349194  0.24831572    -0.71300
O499        O  0.22698764  0.52953410  0.24895052    -0.71500
V500        V  0.24893148  0.97553080  0.24919645     1.35200
V501        V  0.26300318  0.51567774  0.24861058     1.35200
C502        C  0.20730235  0.51307164  0.24908699     0.77900
C503        C  0.30462141  0.97819717  0.24879800     0.78000
C504        C  0.25611657  0.99577025  0.30749703     0.77800
C505        C  0.25561289  0.99528062  0.19026927     0.77800
O506        O  0.21998895  0.96492085  0.00134082    -0.71300
O507        O  0.24732009  0.53722237  0.49563989    -0.71600
O508        O  0.23336710  0.49886327  0.45489122    -0.71400
O509        O  0.23407270  0.50356883  0.04229916    -0.71400
O510        O  0.27312037  0.98292294  0.04282598    -0.71400
O511        O  0.27613735  0.98818640  0.45552786    -0.71400
O512        O  0.28820113  0.52169341  0.00215418    -0.71300
O513        O  0.26102602  0.94943813  0.49593809    -0.71500
V514        V  0.23438605  0.50085208  0.99859370     1.35200
V515        V  0.27389088  0.98579951  0.99915100     1.35200
C516        C  0.23586750  0.94479798  0.99826231     0.77900
C517        C  0.27240619  0.54184640  0.99860845     0.78000
C518        C  0.25500970  0.99376085  0.44026052     0.77800
C519        C  0.25354324  0.99342863  0.05748234     0.77800
C520        C  0.06044591  0.58466913  0.24799609     0.03600
C521        C  0.04039055  0.56465081  0.24484337    -0.12600
C522        C  0.04727458  0.53701503  0.24286971     0.01100
C523        C  0.07467049  0.52939250  0.24276732    -0.11100
C524        C  0.09523518  0.54894649  0.24644766     0.03600
C525        C  0.08786548  0.57667319  0.24886746    -0.10500
H526        H  0.01921733  0.57054072  0.24373139     0.09200
H527        H  0.07985393  0.50804802  0.24043533     0.06700
H528        H  0.10333664  0.59199221  0.25227238     0.06500
O529        O  0.48423712  0.73736679  0.20824391    -0.71300
O530        O  0.48589596  0.73824331  0.29559633    -0.71600
O531        O  0.47171584  0.77421697  0.25191730    -0.71400
O532        O  0.49857239  0.70143607  0.25249452    -0.71400
O533        O  0.03971418  0.71666486  0.24769521    -0.71400
O534        O  0.01315551  0.78916942  0.25290170    -0.71400
O535        O  0.02813818  0.75067938  0.29427021    -0.71300
O536        O  0.02452903  0.75507996  0.20675905    -0.71500
V537        V  0.48589578  0.73808084  0.25197607     1.35200
V538        V  0.02559861  0.75262755  0.25048323     1.35200
C539        C  0.00389369  0.74651396  0.19254233     0.77900
C540        C  0.00738572  0.74412052  0.30984692     0.78000
C541        C  0.48798077  0.79410101  0.25255231     0.77800
C542        C  0.02371167  0.69666911  0.24992506     0.77800
O543        O  0.46127387  0.75274636  0.00115750    -0.71300
O544        O  0.03397958  0.77848734  0.49832060    -0.71600
O545        O  0.49691175  0.76383518  0.45641900    -0.71400
O546        O  0.49834466  0.76758865  0.04372522    -0.71400
O547        O  0.00873479  0.72448420  0.04585594    -0.71400
O548        O  0.01586878  0.72377793  0.45853966    -0.71400
O549        O  0.04840334  0.73703876  0.00577929    -0.71300
O550        O  0.47618781  0.71104336  0.49912333    -0.71500
V551        V  0.49788581  0.76491515  0.50001615     1.35200
V552        V  0.01203686  0.72484139  0.50223813     1.35200
C553        C  0.45636572  0.72745276  0.49967198     0.77900
C554        C  0.05354547  0.76211416  0.50230710     0.78000
C555        C  0.00674283  0.74345378  0.44262441     0.77800
C556        C  0.00317966  0.74644898  0.05963282     0.77800
C557        C  0.01979538  0.76494654  0.14177442    -0.20900
C558        C  0.00289887  0.74707249  0.15844593    -0.08900
C559        C  0.48552305  0.72954603  0.14216083     0.29900
C560        C  0.48575109  0.72944041  0.10993030    -0.20900
C561        C  0.00259784  0.74731973  0.09345881    -0.08900
C562        C  0.01943133  0.76532726  0.10953096     0.30000
F563        F  0.03621593  0.78253475  0.09402069    -0.19400
H564        H  0.03327685  0.77869736  0.15372845     0.18300
H565        H  0.47264497  0.71546368  0.09775831     0.18300
F566        F  0.46885606  0.71198546  0.15730266    -0.19400
C567        C  0.03088817  0.73616064  0.39268934    -0.20900
C568        C  0.00705238  0.74276759  0.40876708    -0.08900
C569        C  0.48352904  0.74956077  0.39225626     0.29900
C570        C  0.48381912  0.74958304  0.36010213    -0.20900
C571        C  0.00775296  0.74360879  0.34385344    -0.08900
C572        C  0.03140859  0.73696197  0.36039801     0.30000
F573        F  0.05479896  0.73074233  0.34541094    -0.19400
H574        H  0.04921170  0.73098482  0.40516365     0.18300
H575        H  0.46536799  0.75472961  0.34785408     0.18300
F576        F  0.46011629  0.75569139  0.40727177    -0.19400
C577        C  0.02085954  0.64863369  0.26809090    -0.20900
C578        C  0.03406494  0.66842429  0.25013291    -0.08900
C579        C  0.05708361  0.66094745  0.23287930     0.29900
C580        C  0.06601393  0.63380696  0.23280713    -0.20900
C581        C  0.05239304  0.61381754  0.25025457    -0.08900
C582        C  0.03010600  0.62170607  0.26858401     0.30000
F583        F  0.01742796  0.60346869  0.28732967    -0.19400
H584        H  0.00350692  0.65412889  0.28213700     0.18300
H585        H  0.08311966  0.62826422  0.21841475     0.18300
F586        F  0.07026372  0.67959757  0.21513872    -0.19400
C587        C  0.15880155  0.50719451  0.26331910    -0.20900
C588        C  0.17901251  0.52297628  0.24918189    -0.08900
C589        C  0.17181203  0.54785232  0.23508600     0.29900
C590        C  0.14464281  0.55618521  0.23427563    -0.20900
C591        C  0.12422297  0.54025599  0.24816736    -0.08900
C592        C  0.13181589  0.51587104  0.26338383     0.30000
F593        F  0.11340131  0.00066834  0.27915074    -0.19400
H594        H  0.16400220  0.98825516  0.27490007     0.18300
H595        H  0.13955948  0.57490579  0.22222557     0.18300
F596        F  0.19085906  0.56365851  0.22115934    -0.19400
C597        C  0.24513391  0.51739615  0.13979236    -0.20900
C598        C  0.25524406  0.99490872  0.15634331    -0.08900
C599        C  0.26457937  0.97192119  0.14023612     0.28100
C600        C  0.26416586  0.97168310  0.10803056    -0.20900
C601        C  0.25363713  0.99395685  0.09144916    -0.08900
C602        C  0.24390477  0.51680344  0.10758008     0.30000
F603        F  0.23393558  0.53882161  0.09219080    -0.19400
H604        H  0.23775441  0.53522960  0.15186636     0.18300
H605        H  0.27177776  0.95392339  0.09600448     0.18300
F606        F  0.27472771  0.94998422  0.15562755    -0.19400
C607        C  0.23165318  0.98940017  0.38964302    -0.20900
C608        C  0.25554345  0.99438257  0.40622742    -0.08900
C609        C  0.27964738  0.00015325  0.38996929     0.29900
C610        C  0.27960936  0.00122625  0.35773378    -0.20900
C611        C  0.25581668  0.99574793  0.34132728    -0.08900
C612        C  0.23184827  0.98968607  0.35743607     0.30000
F613        F  0.20851716  0.98459784  0.34197931    -0.19400
H614        H  0.21288362  0.98489623  0.40163188     0.18300
H615        H  0.29826265  0.00580703  0.34553442     0.18300
F616        F  0.30310357  0.00523784  0.40517818    -0.19400
C617        C  0.19319277  0.88156385  0.51242315    -0.20900
C618        C  0.20812202  0.86155498  0.99649222    -0.08900
C619        C  0.23123735  0.86974637  0.97963036     0.29900
C620        C  0.24002500  0.89680051  0.98043513    -0.20900
C621        C  0.22552779  0.91653652  0.99704260    -0.08900
C622        C  0.20156267  0.90884139  0.51239634     0.30000
F623        F  0.18681175  0.92740118  0.52843242    -0.19400
H624        H  0.17541158  0.87601342  0.52570559     0.18300
H625        H  0.25812358  0.90241084  0.96771470     0.18300
F626        F  0.24520027  0.85177395  0.96191817    -0.19400
C627        C  0.11828397  0.79891444  0.48080214    -0.20900
C628        C  0.13635355  0.78885394  0.50317172    -0.08900
C629        C  0.12666005  0.77059842  0.02580545     0.29900
C630        C  0.09965633  0.76198443  0.02537138    -0.20900
C631        C  0.08174302  0.77188109  0.50285904    -0.08900
C632        C  0.09115770  0.79059139  0.48067832     0.30000
F633        F  0.07443877  0.79987391  0.45810878    -0.19400
H634        H  0.12534171  0.81275584  0.46299245     0.18300
H635        H  0.09261171  0.74780270  0.04285799     0.18300
F636        F  0.14316000  0.76147577  0.04867176    -0.19400
C637        C  0.00589156  0.97395954  0.22466632    -0.20900
C638        C  0.48524825  0.97569363  0.24693680    -0.08900
C639        C  0.48493461  0.49777665  0.26739973     0.29900
C640        C  0.50499702  0.51772669  0.26558295    -0.20900
C641        C  0.02570144  0.51606771  0.24335189    -0.08900
C642        C  0.02593503  0.99402713  0.22273901     0.30000
F643        F  0.04514297  0.99220065  0.20037363    -0.19400
H644        H  0.00625676  0.95719956  0.20850977     0.18300
H645        H  0.50468019  0.53426709  0.28202781     0.18300
F646        F  0.46570383  0.49960354  0.28975078    -0.19400
C647        C  0.36792064  0.93649795  0.23319385    -0.20900
C648        C  0.38731597  0.95048964  0.25074413    -0.08900
C649        C  0.37892127  0.97320320  0.26818212     0.29900
C650        C  0.35206360  0.98220105  0.26706427    -0.20900
C651        C  0.33284006  0.96832007  0.24941002    -0.08900
C652        C  0.34084712  0.94517603  0.23270406     0.30000
F653        F  0.32274106  0.93159625  0.21501383    -0.19400
H654        H  0.37381664  0.91917743  0.21931155     0.18300
H655        H  0.34612767  0.49978520  0.28053075     0.18300
F656        F  0.39650590  0.98641457  0.28688977    -0.19400
C657        C  0.48268385  0.86924614  0.23451156    -0.20900
C658        C  0.45979141  0.87719858  0.25174650    -0.08900
C659        C  0.44591091  0.85714976  0.26911592     0.29900
C660        C  0.45477511  0.82994772  0.26884308    -0.20900
C661        C  0.47805373  0.82247145  0.25219753    -0.08900
C662        C  0.49199862  0.84238825  0.23513254     0.30000
F663        F  0.01431590  0.83574834  0.21835237    -0.19400
H664        H  0.99347646  0.88385638  0.22028852     0.18300
H665        H  0.44394006  0.81485760  0.28239418     0.18300
F666        F  0.42450612  0.86386062  0.28730263    -0.19400
C667        C  0.25584121  0.76397117  0.48291084    -0.20900
C668        C  0.23470039  0.76306642  0.50464000    -0.08900
C669        C  0.23435720  0.74189804  0.02670487     0.29900
C670        C  0.25477465  0.72199478  0.02677542    -0.20900
C671        C  0.27591975  0.72300167  0.50504842    -0.08900
C672        C  0.27623231  0.74416308  0.48302207     0.30000
F673        F  0.29579776  0.74518577  0.46096699    -0.19400
H674        H  0.25630794  0.77985207  0.46544360     0.18300
H675        H  0.25426436  0.70593264  0.04402175     0.18300
F676        F  0.21470216  0.74085424  0.04863770    -0.19400
C677        C  0.42162572  0.69235074  0.51306599    -0.20900
C678        C  0.42821807  0.71723233  0.49875648    -0.08900
C679        C  0.40771373  0.73216259  0.98382842     0.29900
C680        C  0.38110602  0.72240488  0.98349195    -0.20900
C681        C  0.37412270  0.69794401  0.49875276    -0.08900
C682        C  0.39484311  0.68291219  0.51349248     0.30000
F683        F  0.38916128  0.65978281  0.52955954    -0.19400
H684        H  0.43712777  0.68061317  0.52486716     0.18300
H685        H  0.36588618  0.73416514  0.97128129     0.18300
F686        F  0.41345644  0.75595741  0.96906019    -0.19400
C687        C  0.27816283  0.61759268  0.48240310    -0.20900
C688        C  0.30185965  0.62455279  0.99852053    -0.08900
C689        C  0.31646996  0.60363826  0.01361849     0.29900
C690        C  0.30714962  0.57666472  0.01296433    -0.20900
C691        C  0.28289197  0.57008650  0.99785375    -0.08900
C692        C  0.26859870  0.59081967  0.48230085     0.30000
F693        F  0.24549303  0.58520918  0.46664548    -0.19400
H694        H  0.26682130  0.63299856  0.46987451     0.18300
H695        H  0.31847594  0.56102656  0.02516169     0.18300
F696        F  0.33902564  0.60933488  0.03020670    -0.19400
C697        C  0.31016942  0.65373369  0.50047652     0.03600
C698        C  0.33759381  0.66159349  0.49811404    -0.12600
C699        C  0.34513561  0.68924854  0.00033776     0.01100
C700        C  0.32467034  0.70903807  0.00373853    -0.11100
C701        C  0.29726486  0.70168693  0.00472953     0.03600
C702        C  0.29022468  0.67406526  0.50401479    -0.10500
H703        H  0.35294418  0.64628063  0.49371590     0.09200
H704        H  0.32996259  0.73038109  0.00576826     0.06700
H705        H  0.26901898  0.66849802  0.50561577     0.06500
C706        C  0.45133570  0.90644661  0.75159585     0.03600
C707        C  0.42377661  0.91421034  0.75130540    -0.12600
C708        C  0.41628401  0.94195795  0.75021712     0.01100
C709        C  0.43665339  0.96183462  0.74816765    -0.11100
C710        C  0.46406409  0.95449101  0.74868201     0.03600
C711        C  0.47125871  0.92693461  0.75074716    -0.10500
H712        H  0.40814401  0.89877407  0.75167620     0.09200
H713        H  0.43123160  0.98316098  0.74562379     0.06700
H714        H  0.49256014  0.92155471  0.75193825     0.06500
C715        C  0.16533052  0.79693135  0.00236277     0.03600
C716        C  0.18570990  0.77693297  0.00439065    -0.12600
C717        C  0.21317385  0.78424211  0.00379713     0.01100
C718        C  0.22019186  0.81188133  0.50140794    -0.11100
C719        C  0.20018164  0.83224965  0.49861448     0.03600
C720        C  0.17270944  0.82448406  0.99900989    -0.10500
H721        H  0.18017370  0.75557863  0.00561175     0.09200
H722        H  0.24140122  0.81745685  0.50238990     0.06700
H723        H  0.15699128  0.83985375  0.99690872     0.06500
O724        O  0.21237404  0.98776569  0.74920034    -0.71300
O725        O  0.28496749  0.96169537  0.74919399    -0.71600
O726        O  0.24835065  0.97501136  0.79289731    -0.71400
O727        O  0.24885690  0.97434505  0.70553641    -0.71400
O728        O  0.26258356  0.51643901  0.70475789    -0.71400
O729        O  0.26394133  0.51646488  0.79242848    -0.71400
O730        O  0.29956487  0.50349112  0.74831609    -0.71300
O731        O  0.22698680  0.52953418  0.74894978    -0.71500
V732        V  0.24893003  0.97553061  0.74919660     1.35200
V733        V  0.26300219  0.51567731  0.74861039     1.35200
C734        C  0.20730129  0.51307197  0.74908809     0.77900
C735        C  0.30462006  0.97819636  0.74879698     0.78000
C736        C  0.25611627  0.99576988  0.80749700     0.77800
C737        C  0.25561127  0.99528010  0.69026901     0.77800
O738        O  0.21998923  0.96492183  0.50134228    -0.71300
O739        O  0.24731933  0.53722177  0.99564098    -0.71600
O740        O  0.23336722  0.49886332  0.95489105    -0.71400
O741        O  0.23407389  0.50357076  0.54229913    -0.71400
O742        O  0.27312043  0.98292247  0.54282582    -0.71400
O743        O  0.27613709  0.98818506  0.95552795    -0.71400
O744        O  0.28820160  0.52169378  0.50215485    -0.71300
O745        O  0.26102607  0.94943739  0.99593905    -0.71500
V746        V  0.23438649  0.50085290  0.49859381     1.35200
V747        V  0.27389117  0.98580004  0.49915089     1.35200
C748        C  0.23586751  0.94479884  0.49826268     0.77900
C749        C  0.27240690  0.54184685  0.49860822     0.78000
C750        C  0.25500969  0.99376018  0.94026050     0.77800
C751        C  0.25354396  0.99342944  0.55748203     0.77800
C752        C  0.06044457  0.58466928  0.74799727     0.03600
C753        C  0.04038943  0.56465088  0.74484393    -0.12600
C754        C  0.04727362  0.53701516  0.74287015     0.01100
C755        C  0.07466959  0.52939278  0.74276837    -0.11100
C756        C  0.09523410  0.54894689  0.74644927     0.03600
C757        C  0.08786419  0.57667352  0.74886919    -0.10500
H758        H  0.01921617  0.57054069  0.74373147     0.09200
H759        H  0.07985318  0.50804834  0.74043629     0.06700
H760        H  0.10333520  0.59199259  0.75227452     0.06500
O761        O  0.48423499  0.73736683  0.70824373    -0.71300
O762        O  0.48589351  0.73824340  0.79559627    -0.71600
O763        O  0.47171387  0.77421712  0.75191701    -0.71400
O764        O  0.49856990  0.70143594  0.75249457    -0.71400
O765        O  0.03971176  0.71666453  0.74769513    -0.71400
O766        O  0.01315372  0.78916917  0.75290187    -0.71400
O767        O  0.02813599  0.75067890  0.79427022    -0.71300
O768        O  0.02452690  0.75507985  0.70675908    -0.71500
V769        V  0.48589349  0.73808085  0.75197595     1.35200
V770        V  0.02559646  0.75262726  0.75048325     1.35200
C771        C  0.00389150  0.74651409  0.69254227     0.77900
C772        C  0.00738347  0.74412026  0.80984692     0.78000
C773        C  0.48797902  0.79410099  0.75255225     0.77800
C774        C  0.02370917  0.69666887  0.74992505     0.77800
O775        O  0.46127393  0.75274706  0.50115632    -0.71300
O776        O  0.03397946  0.77848672  0.99832004    -0.71600
O777        O  0.49691076  0.76383471  0.95641934    -0.71400
O778        O  0.49834384  0.76758923  0.54372498    -0.71400
O779        O  0.00873391  0.72448498  0.54585601    -0.71400
O780        O  0.01586805  0.72377738  0.95853942    -0.71400
O781        O  0.04840325  0.73703935  0.50578020    -0.71300
O782        O  0.47618780  0.71104271  0.99912409    -0.71500
V783        V  0.49788570  0.76491461  0.00001643     1.35200
V784        V  0.01203692  0.72484072  0.00223800     1.35200
C785        C  0.45636568  0.72745206  0.99967311     0.77900
C786        C  0.05354545  0.76211358  0.00230619     0.78000
C787        C  0.00674169  0.74345322  0.94262446     0.77800
C788        C  0.00317851  0.74644977  0.55963271     0.77800
C789        C  0.01979338  0.76494703  0.64177464    -0.20900
C790        C  0.00289674  0.74707292  0.65844587    -0.08900
C791        C  0.48552110  0.72954646  0.64216054     0.29900
C792        C  0.48574935  0.72944098  0.60993001    -0.20900
C793        C  0.00259614  0.74732057  0.59345871    -0.08900
C794        C  0.01942955  0.76532797  0.60953119     0.30000
F795        F  0.03621429  0.78253555  0.59402125    -0.19400
H796        H  0.03327485  0.77869773  0.65372888     0.18300
H797        H  0.47264339  0.71546424  0.59775785     0.18300
F798        F  0.46885400  0.71198584  0.65730216    -0.19400
C799        C  0.03088649  0.73616040  0.89268909    -0.20900
C800        C  0.00705081  0.74276718  0.90876712    -0.08900
C801        C  0.48352728  0.74956064  0.89225662     0.29900
C802        C  0.48381705  0.74958281  0.86010246    -0.20900
C803        C  0.00775081  0.74360837  0.84385346    -0.08900
C804        C  0.03140664  0.73696178  0.86039779     0.30000
F805        F  0.05479697  0.73074247  0.84541049    -0.19400
H806        H  0.04921017  0.73098465  0.90516320     0.18300
H807        H  0.46536582  0.75472944  0.84785460     0.18300
F808        F  0.46011469  0.75569148  0.90727240    -0.19400
C809        C  0.02085700  0.64863339  0.76809087    -0.20900
C810        C  0.03406248  0.66842406  0.75013304    -0.08900
C811        C  0.05708163  0.66094741  0.73288012     0.29900
C812        C  0.06601238  0.63380709  0.73280842    -0.20900
C813        C  0.05239141  0.61381760  0.75025561    -0.08900
C814        C  0.03010389  0.62170591  0.76858441     0.30000
F815        F  0.01742581  0.60346842  0.78732989    -0.19400
H816        H  0.00350407  0.65412841  0.78213654     0.18300
H817        H  0.08311852  0.62826454  0.71841658     0.18300
F818        F  0.07026196  0.67959756  0.71513983    -0.19400
C819        C  0.15880056  0.50719511  0.76332082    -0.20900
C820        C  0.17901152  0.52297694  0.74918360    -0.08900
C821        C  0.17181106  0.54785314  0.73508806     0.29900
C822        C  0.14464182  0.55618601  0.73427777    -0.20900
C823        C  0.12422195  0.54025661  0.74816925    -0.08900
C824        C  0.13181489  0.51587163  0.76338562     0.30000
F825        F  0.11340035  0.00066883  0.77915211    -0.19400
H826        H  0.16400124  0.98825577  0.77490142     0.18300
H827        H  0.13955849  0.57490664  0.72222784     0.18300
F828        F  0.19085807  0.56365942  0.72116143    -0.19400
C829        C  0.24516009  0.51740730  0.63979026    -0.20900
C830        C  0.25524272  0.99490794  0.65634257    -0.08900
C831        C  0.26455267  0.97190957  0.64023581     0.28100
C832        C  0.26414044  0.97167195  0.60803022    -0.20900
C833        C  0.25363774  0.99395760  0.59144834    -0.08900
C834        C  0.24393192  0.51681582  0.60757788     0.30000
F835        F  0.23399055  0.53884586  0.59218694    -0.19400
H836        H  0.23780144  0.53524992  0.65186315     0.18300
H837        H  0.27173253  0.95390361  0.59600435     0.18300
F838        F  0.27467524  0.94996070  0.65562751    -0.19400
C839        C  0.23165318  0.98939971  0.88964301    -0.20900
C840        C  0.25554354  0.99438171  0.90622739    -0.08900
C841        C  0.27964756  0.00015200  0.88996924     0.29900
C842        C  0.27960944  0.00122530  0.85773372    -0.20900
C843        C  0.25581660  0.99574751  0.84132726    -0.08900
C844        C  0.23184816  0.98968580  0.85743607     0.30000
F845        F  0.20851694  0.98459798  0.84197933    -0.19400
H846        H  0.21288355  0.98489600  0.90163190     0.18300
H847        H  0.29826275  0.00580593  0.84553430     0.18300
F848        F  0.30310387  0.00523612  0.90517813    -0.19400
C849        C  0.19319238  0.88156313  0.01242145    -0.20900
C850        C  0.20812203  0.86155570  0.49649344    -0.08900
C851        C  0.23123697  0.86974713  0.47963089     0.29900
C852        C  0.24002453  0.89680132  0.48043532    -0.20900
C853        C  0.22552769  0.91653736  0.49704321    -0.08900
C854        C  0.20156233  0.90884063  0.01239490     0.30000
F855        F  0.18681091  0.92740046  0.02843035    -0.19400
H856        H  0.17541086  0.87601275  0.02570331     0.18300
H857        H  0.25812279  0.90241169  0.46771429     0.18300
F858        F  0.24519951  0.85177473  0.46191827    -0.19400
C859        C  0.11828399  0.79891376  0.98080087    -0.20900
C860        C  0.13635361  0.78885319  0.00317043    -0.08900
C861        C  0.12666003  0.77059903  0.52580663     0.29900
C862        C  0.09965632  0.76198495  0.52537252    -0.20900
C863        C  0.08174299  0.77188057  0.00285795    -0.08900
C864        C  0.09115764  0.79059085  0.98067719     0.30000
F865        F  0.07443856  0.79987345  0.95810782    -0.19400
H866        H  0.12534173  0.81275514  0.96299117     0.18300
H867        H  0.09261171  0.74780313  0.54285903     0.18300
F868        F  0.14316010  0.76147625  0.54867276    -0.19400
C869        C  0.00589064  0.97396027  0.72466449    -0.20900
C870        C  0.48524697  0.97569404  0.74693465    -0.08900
C871        C  0.48493293  0.49777689  0.76739776     0.29900
C872        C  0.50499552  0.51772680  0.76558186    -0.20900
C873        C  0.02570050  0.51606783  0.74335146    -0.08900
C874        C  0.02593432  0.99402773  0.72273815     0.30000
F875        F  0.04514264  0.99220157  0.70037314    -0.19400
H876        H  0.00625600  0.95720058  0.70850758     0.18300
H877        H  0.50467839  0.53426705  0.78202687     0.18300
F878        F  0.46570167  0.49960369  0.78974827    -0.19400
C879        C  0.36791941  0.93649795  0.73319034    -0.20900
C880        C  0.38731481  0.95048939  0.75074080    -0.08900
C881        C  0.37892012  0.97320231  0.76817977     0.29900
C882        C  0.35206235  0.98219986  0.76706279    -0.20900
C883        C  0.33283871  0.96831920  0.74940835    -0.08900
C884        C  0.34084577  0.94517579  0.73270130     0.30000
F885        F  0.32273959  0.93159651  0.71501075    -0.19400
H886        H  0.37381547  0.91917786  0.71930738     0.18300
H887        H  0.34612635  0.49978360  0.78053002     0.18300
F888        F  0.39650493  0.98641334  0.78688748    -0.19400
C889        C  0.48268377  0.86924620  0.73451156    -0.20900
C890        C  0.45979050  0.87719884  0.75174499    -0.08900
C891        C  0.44590921  0.85715018  0.76911388     0.29900
C892        C  0.45477320  0.82994807  0.76884157    -0.20900
C893        C  0.47805243  0.82247156  0.75219726    -0.08900
C894        C  0.49199837  0.84238828  0.73513325     0.30000
F895        F  0.01431620  0.83574820  0.71835414    -0.19400
H896        H  0.99347689  0.88385624  0.72028867     0.18300
H897        H  0.44393744  0.81485807  0.78239209     0.18300
F898        F  0.42450380  0.86386121  0.78729957    -0.19400
C899        C  0.25584117  0.76397043  0.98291067    -0.20900
C900        C  0.23470059  0.76306601  0.00464015    -0.08900
C901        C  0.23435668  0.74189793  0.52670413     0.29900
C902        C  0.25477415  0.72199469  0.52677455    -0.20900
C903        C  0.27591991  0.72300129  0.00504884    -0.08900
C904        C  0.27623222  0.74416231  0.98302202     0.30000
F905        F  0.29579729  0.74518449  0.96096649    -0.19400
H906        H  0.25630765  0.77985099  0.96544305     0.18300
H907        H  0.25426358  0.70593221  0.54402045     0.18300
F908        F  0.21470129  0.74085357  0.54863653    -0.19400
C909        C  0.42162562  0.69234999  0.01306699    -0.20900
C910        C  0.42821802  0.71723162  0.99875759    -0.08900
C911        C  0.40771369  0.73216334  0.48382749     0.29900
C912        C  0.38110595  0.72240570  0.48349135    -0.20900
C913        C  0.37412270  0.69794318  0.99875328    -0.08900
C914        C  0.39484302  0.68291137  0.01349317     0.30000
F915        F  0.38916114  0.65978189  0.02956002    -0.19400
H916        H  0.43712762  0.68061242  0.02486824     0.18300
H917        H  0.36588604  0.73416597  0.47128080     0.18300
F918        F  0.41345633  0.75595809  0.46905910    -0.19400
C919        C  0.27816174  0.61759240  0.98240393    -0.20900
C920        C  0.30186013  0.62455327  0.49852070    -0.08900
C921        C  0.31647012  0.60363892  0.51361940     0.29900
C922        C  0.30714995  0.57666531  0.51296504    -0.20900
C923        C  0.28289280  0.57008690  0.49785350    -0.08900
C924        C  0.26859743  0.59081946  0.98230194     0.30000
F925        F  0.24549123  0.58520921  0.96664749    -0.19400
H926        H  0.26681986  0.63299836  0.96987588     0.18300
H927        H  0.31847592  0.56102726  0.52516301     0.18300
F928        F  0.33902527  0.60933579  0.53020845    -0.19400
C929        C  0.81016925  0.15373324  0.00047653     0.03600
C930        C  0.83759368  0.16159297  0.99811409    -0.12600
C931        C  0.84513565  0.18924932  0.50033772     0.01100
C932        C  0.82467021  0.20903869  0.50373827    -0.11100
C933        C  0.79726478  0.20168737  0.50472927     0.03600
C934        C  0.79022462  0.17406489  0.00401506    -0.10500
H935        H  0.85294404  0.14628012  0.99371577     0.09200
H936        H  0.82996232  0.23038179  0.50576787     0.06700
H937        H  0.76901889  0.16849779  0.00561612     0.06500
C938        C  0.95133672  0.40644633  0.25159845     0.03600
C939        C  0.92377763  0.41421019  0.25130887    -0.12600
C940        C  0.91628515  0.44195789  0.25022083     0.01100
C941        C  0.93665466  0.46183441  0.24817116    -0.11100
C942        C  0.96406533  0.45449066  0.24868492     0.03600
C943        C  0.97125984  0.42693420  0.25074954    -0.10500
H944        H  0.90814501  0.39877398  0.25167989     0.09200
H945        H  0.93123299  0.48316079  0.24562726     0.06700
H946        H  0.99256127  0.42155412  0.25193987     0.06500
C947        C  0.66533044  0.29693208  0.50236395     0.03600
C948        C  0.68570977  0.27693363  0.50439123    -0.12600
C949        C  0.71317374  0.28424264  0.50379738     0.01100
C950        C  0.72019187  0.31188069  0.00140737    -0.11100
C951        C  0.70018165  0.33224891  0.99861326     0.03600
C952        C  0.67270939  0.32448482  0.49901145    -0.10500
H953        H  0.68017347  0.25557930  0.50561206     0.09200
H954        H  0.74140120  0.31745624  0.00238960     0.06700
H955        H  0.65699123  0.33985458  0.49691075     0.06500
O956        O  0.71237536  0.48776540  0.24919812    -0.71300
O957        O  0.78496899  0.46169591  0.24919590    -0.71600
O958        O  0.74835024  0.47501197  0.29289721    -0.71400
O959        O  0.74886028  0.47434478  0.20553624    -0.71400
O960        O  0.76258392  0.01643984  0.20475815    -0.71400
O961        O  0.76394262  0.01646487  0.29242858    -0.71400
O962        O  0.79956603  0.00349181  0.24831575    -0.71300
O963        O  0.72698761  0.02953396  0.24895035    -0.71500
V964        V  0.74893146  0.47553076  0.24919647     1.35200
V965        V  0.76300315  0.01567761  0.24861055     1.35200
C966        C  0.70730232  0.01307149  0.24908697     0.77900
C967        C  0.80462139  0.47819706  0.24879800     0.78000
C968        C  0.75611654  0.49577016  0.30749707     0.77800
C969        C  0.75561290  0.49528062  0.19026930     0.77800
O970        O  0.71998889  0.46492089  0.00134092    -0.71300
O971        O  0.74732032  0.03722235  0.49563986    -0.71600
O972        O  0.73336720  0.99886321  0.45489130    -0.71400
O973        O  0.73407280  0.00356876  0.04229918    -0.71400
O974        O  0.77312026  0.48292294  0.04282603    -0.71400
O975        O  0.77613720  0.48818635  0.45552789    -0.71400
O976        O  0.78820128  0.02169345  0.00215416    -0.71300
O977        O  0.76102594  0.44943815  0.49593828    -0.71500
V978        V  0.73438617  0.00085211  0.99859372     1.35200
V979        V  0.77389081  0.48579954  0.99915105     1.35200
C980        C  0.73586744  0.44479802  0.99826240     0.77900
C981        C  0.77240633  0.04184643  0.99860850     0.78000
C982        C  0.75500958  0.49376089  0.44026054     0.77800
C983        C  0.75354311  0.49342863  0.05748238     0.77800
C984        C  0.56044592  0.08466908  0.24799619     0.03600
C985        C  0.54039060  0.06465073  0.24484349    -0.12600
C986        C  0.54727464  0.03701497  0.24286976     0.01100
C987        C  0.57467056  0.02939248  0.24276736    -0.11100
C988        C  0.59523522  0.04894647  0.24644780     0.03600
C989        C  0.58786549  0.07667315  0.24886761    -0.10500
H990        H  0.51921734  0.07054060  0.24373155     0.09200
H991        H  0.57985402  0.00804801  0.24043526     0.06700
H992        H  0.60333666  0.09199220  0.25227254     0.06500
O993        O  0.98423711  0.23736687  0.20824383    -0.71300
O994        O  0.98589591  0.23824326  0.29559626    -0.71600
O995        O  0.97171586  0.27421695  0.25191726    -0.71400
O996        O  0.99857229  0.20143604  0.25249444    -0.71400
O997        O  0.53971406  0.21666486  0.24769523    -0.71400
O998        O  0.51315543  0.28916942  0.25290165    -0.71400
O999        O  0.52813807  0.25067947  0.29427020    -0.71300
O1000       O  0.52452894  0.25507989  0.20675903    -0.71500
V1001       V  0.98589574  0.23808083  0.25197600     1.35200
V1002       V  0.52559851  0.25262755  0.25048321     1.35200
C1003       C  0.50389357  0.24651394  0.19254231     0.77900
C1004       C  0.50738564  0.24412051  0.30984691     0.78000
C1005       C  0.98798080  0.29410097  0.25255231     0.77800
C1006       C  0.52371156  0.19666909  0.24992509     0.77800
O1007       O  0.96127391  0.25274648  0.00115756    -0.71300
O1008       O  0.53397962  0.27848729  0.49832059    -0.71600
O1009       O  0.99691179  0.26383523  0.45641896    -0.71400
O1010       O  0.99834481  0.26758870  0.04372523    -0.71400
O1011       O  0.50873469  0.22448423  0.04585594    -0.71400
O1012       O  0.51586880  0.22377794  0.45853965    -0.71400
O1013       O  0.54840327  0.23703877  0.00577929    -0.71300
O1014       O  0.97618781  0.21104343  0.49912345    -0.71500
V1015       V  0.99788585  0.26491524  0.50001609     1.35200
V1016       V  0.51203682  0.22484141  0.50223813     1.35200
C1017       C  0.95636572  0.22745284  0.49967203     0.77900
C1018       C  0.55354550  0.26211409  0.50230705     0.78000
C1019       C  0.50674287  0.24345380  0.44262442     0.77800
C1020       C  0.50317960  0.24644901  0.05963283     0.77800
C1021       C  0.51979537  0.26494641  0.14177446    -0.20900
C1022       C  0.50289879  0.24707244  0.15844593    -0.08900
C1023       C  0.98552322  0.22954602  0.14216080     0.29900
C1024       C  0.98575135  0.22944034  0.10993028    -0.20900
C1025       C  0.50259775  0.24731973  0.09345882    -0.08900
C1026       C  0.51943133  0.26532715  0.10953101     0.30000
F1027       F  0.53621597  0.28253461  0.09402079    -0.19400
H1028       H  0.53327689  0.27869719  0.15372850     0.18300
H1029       H  0.97264533  0.21546352  0.09775829     0.18300
F1030       F  0.96885633  0.21198536  0.15730265    -0.19400
C1031       C  0.53088819  0.23616084  0.39268933    -0.20900
C1032       C  0.50705236  0.24276762  0.40876708    -0.08900
C1033       C  0.98352899  0.24956066  0.39225624     0.29900
C1034       C  0.98381903  0.24958286  0.36010211    -0.20900
C1035       C  0.50775288  0.24360876  0.34385344    -0.08900
C1036       C  0.53140859  0.23696223  0.36039800     0.30000
F1037       F  0.55479906  0.23074305  0.34541094    -0.19400
H1038       H  0.54921175  0.23098515  0.40516361     0.18300
H1039       H  0.96536785  0.25472929  0.34785408     0.18300
F1040       F  0.96011625  0.25569130  0.40727177    -0.19400
C1041       C  0.52085942  0.14863363  0.26809088    -0.20900
C1042       C  0.53406487  0.16842426  0.25013295    -0.08900
C1043       C  0.55708355  0.16094741  0.23287937     0.29900
C1044       C  0.56601393  0.13380693  0.23280723    -0.20900
C1045       C  0.55239300  0.11381749  0.25025464    -0.08900
C1046       C  0.53010591  0.12170601  0.26858398     0.30000
F1047       F  0.51742781  0.10346858  0.28732952    -0.19400
H1048       H  0.50350675  0.15412875  0.28213690     0.18300
H1049       H  0.58311968  0.12826421  0.21841495     0.18300
F1050       F  0.57026374  0.17959748  0.21513879    -0.19400
C1051       C  0.65880156  0.00719440  0.26331909    -0.20900
C1052       C  0.67901250  0.02297616  0.24918187    -0.08900
C1053       C  0.67181206  0.04785219  0.23508596     0.29900
C1054       C  0.64464286  0.05618513  0.23427562    -0.20900
C1055       C  0.62422301  0.04025595  0.24816743    -0.08900
C1056       C  0.63181593  0.01587097  0.26338385     0.30000
F1057       F  0.61340126  0.50066835  0.27915055    -0.19400
H1058       H  0.66400217  0.48825509  0.27489993     0.18300
H1059       H  0.63955955  0.07490570  0.22222554     0.18300
F1060       F  0.69085912  0.06365826  0.22115914    -0.19400
C1061       C  0.74513524  0.01739660  0.13979229    -0.20900
C1062       C  0.75524404  0.49490878  0.15634335    -0.08900
C1063       C  0.76457948  0.47192132  0.14023614     0.28100
C1064       C  0.76416588  0.47168318  0.10803059    -0.20900
C1065       C  0.75363699  0.49395685  0.09144920    -0.08900
C1066       C  0.74390613  0.01680395  0.10757999     0.30000
F1067       F  0.73393832  0.03882271  0.09219062    -0.19400
H1068       H  0.73775675  0.03523050  0.15186627     0.18300
H1069       H  0.77177789  0.45392349  0.09600452     0.18300
F1070       F  0.77472804  0.44998449  0.15562758    -0.19400
C1071       C  0.73165308  0.48940004  0.38964305    -0.20900
C1072       C  0.75554333  0.49438255  0.40622745    -0.08900
C1073       C  0.77964724  0.50015329  0.38996934     0.29900
C1074       C  0.77960923  0.50122628  0.35773385    -0.20900
C1075       C  0.75581661  0.49574786  0.34132732    -0.08900
C1076       C  0.73184819  0.48968590  0.35743609     0.30000
F1077       F  0.70851707  0.48459774  0.34197931    -0.19400
H1078       H  0.71288351  0.48489610  0.40163188     0.18300
H1079       H  0.79826254  0.50580715  0.34553450     0.18300
F1080       F  0.80310341  0.50523793  0.40517825    -0.19400
C1081       C  0.69319270  0.38156382  0.51242315    -0.20900
C1082       C  0.70812204  0.36155495  0.99649224    -0.08900
C1083       C  0.73123740  0.36974634  0.97963039     0.29900
C1084       C  0.74002503  0.39680049  0.98043519    -0.20900
C1085       C  0.72552778  0.41653652  0.99704261    -0.08900
C1086       C  0.70156257  0.40884137  0.51239632     0.30000
F1087       F  0.68681164  0.42740112  0.52843242    -0.19400
H1088       H  0.67541152  0.37601336  0.52570558     0.18300
H1089       H  0.75812366  0.40241084  0.96771477     0.18300
F1090       F  0.74520034  0.35177392  0.96191820    -0.19400
C1091       C  0.61828400  0.29891438  0.48080198    -0.20900
C1092       C  0.63635356  0.28885391  0.50317164    -0.08900
C1093       C  0.62665999  0.27059854  0.02580558     0.29900
C1094       C  0.59965626  0.26198458  0.02537155    -0.20900
C1095       C  0.58174305  0.27188103  0.50285890    -0.08900
C1096       C  0.59115771  0.29059131  0.48067813     0.30000
F1097       F  0.57443874  0.29987382  0.45810860    -0.19400
H1098       H  0.62534174  0.31275579  0.46299232     0.18300
H1099       H  0.59261158  0.24780296  0.04285828     0.18300
F1100       F  0.64316004  0.26147589  0.04867182    -0.19400
C1101       C  0.50589149  0.47395967  0.22466626    -0.20900
C1102       C  0.98524822  0.47569363  0.24693686    -0.08900
C1103       C  0.98493455  0.99777671  0.26739955     0.29900
C1104       C  0.00499692  0.01772677  0.26558273    -0.20900
C1105       C  0.52570151  0.01606764  0.24335194    -0.08900
C1106       C  0.52593496  0.49402728  0.22273895     0.30000
F1107       F  0.54514280  0.49220095  0.20037344    -0.19400
H1108       H  0.50625664  0.45719976  0.20850964     0.18300
H1109       H  0.00468000  0.03426724  0.28202748     0.18300
F1110       F  0.96570378  0.99960362  0.28975058    -0.19400
C1111       C  0.86792061  0.43649783  0.23319398    -0.20900
C1112       C  0.88731598  0.45048960  0.25074413    -0.08900
C1113       C  0.87892129  0.47320323  0.26818203     0.29900
C1114       C  0.85206360  0.48220107  0.26706419    -0.20900
C1115       C  0.83284005  0.46832000  0.24941004    -0.08900
C1116       C  0.84084708  0.44517590  0.23270423     0.30000
F1117       F  0.82274093  0.43159607  0.21501419    -0.19400
H1118       H  0.87381659  0.41917723  0.21931175     0.18300
H1119       H  0.84612768  0.99978529  0.28053050     0.18300
F1120       F  0.89650593  0.48641471  0.28688954    -0.19400
C1121       C  0.98268398  0.36924612  0.23451182    -0.20900
C1122       C  0.95979144  0.37719854  0.25174663    -0.08900
C1123       C  0.94591088  0.35714969  0.26911596     0.29900
C1124       C  0.95477509  0.32994765  0.26884309    -0.20900
C1125       C  0.97805376  0.32247140  0.25219757    -0.08900
C1126       C  0.99199872  0.34238822  0.23513272     0.30000
F1127       F  0.51431575  0.33574826  0.21835215    -0.19400
H1128       H  0.49347635  0.38385634  0.22028828     0.18300
H1129       H  0.94394004  0.31485751  0.28239415     0.18300
F1130       F  0.92450603  0.36386053  0.28730261    -0.19400
C1131       C  0.75584117  0.26397108  0.48291084    -0.20900
C1132       C  0.73470036  0.26306636  0.50464002    -0.08900
C1133       C  0.73435722  0.24189803  0.02670486     0.29900
C1134       C  0.75477468  0.22199480  0.02677540    -0.20900
C1135       C  0.77591966  0.22300157  0.50504847    -0.08900
C1136       C  0.77623223  0.24416294  0.48302208     0.30000
F1137       F  0.79579765  0.24518554  0.46096697    -0.19400
H1138       H  0.75630791  0.27985195  0.46544357     0.18300
H1139       H  0.75426442  0.20593268  0.04402177     0.18300
F1140       F  0.71470222  0.24085420  0.04863772    -0.19400
C1141       C  0.92162571  0.19235093  0.51306626    -0.20900
C1142       C  0.92821805  0.21723245  0.49875658    -0.08900
C1143       C  0.90771375  0.23216273  0.98382861     0.29900
C1144       C  0.88110604  0.22240505  0.98349216    -0.20900
C1145       C  0.87412268  0.19794413  0.49875312    -0.08900
C1146       C  0.89484311  0.18291237  0.51349285     0.30000
F1147       F  0.88916137  0.15978299  0.52955997    -0.19400
H1148       H  0.93712777  0.18061342  0.52486748     0.18300
H1149       H  0.86588620  0.23416533  0.97128150     0.18300
F1150       F  0.91345649  0.25595755  0.96906040    -0.19400
C1151       C  0.77816305  0.11759263  0.48240304    -0.20900
C1152       C  0.80185977  0.12455284  0.99852069    -0.08900
C1153       C  0.81647000  0.10363834  0.01361877     0.29900
C1154       C  0.80714966  0.07666478  0.01296463    -0.20900
C1155       C  0.78289208  0.07008655  0.99785388    -0.08900
C1156       C  0.76859898  0.09081962  0.48230079     0.30000
F1157       F  0.74549345  0.08520908  0.46664521    -0.19400
H1158       H  0.76682155  0.13299848  0.46987435     0.18300
H1159       H  0.81847589  0.06102664  0.02516208     0.18300
F1160       F  0.83902556  0.10933499  0.03020716    -0.19400
C1161       C  0.81016949  0.15373369  0.50047661     0.03600
C1162       C  0.83759387  0.16159355  0.49811430    -0.12600
C1163       C  0.84513564  0.18924867  0.00033782     0.01100
C1164       C  0.82467034  0.20903817  0.00373854    -0.11100
C1165       C  0.79726489  0.20168699  0.00472952     0.03600
C1166       C  0.79022470  0.17406520  0.50401494    -0.10500
H1167       H  0.85294430  0.14628071  0.49371620     0.09200
H1168       H  0.82996256  0.23038122  0.00576828     0.06700
H1169       H  0.76901901  0.16849790  0.50561590     0.06500
C1170       C  0.95133564  0.40644661  0.75159591     0.03600
C1171       C  0.92377654  0.41421033  0.75130552    -0.12600
C1172       C  0.91628396  0.44195794  0.75021712     0.01100
C1173       C  0.93665335  0.46183459  0.74816761    -0.11100
C1174       C  0.96406405  0.45449099  0.74868196     0.03600
C1175       C  0.97125867  0.42693459  0.75074713    -0.10500
H1176       H  0.90814394  0.39877408  0.75167637     0.09200
H1177       H  0.93123154  0.48316093  0.74562366     0.06700
H1178       H  0.99256011  0.42155468  0.75193815     0.06500
C1179       C  0.66533047  0.29693132  0.00236276     0.03600
C1180       C  0.68570986  0.27693296  0.00439066    -0.12600
C1181       C  0.71317381  0.28424208  0.00379709     0.01100
C1182       C  0.72019189  0.31188129  0.50140797    -0.11100
C1183       C  0.70018166  0.33224961  0.49861449     0.03600
C1184       C  0.67270938  0.32448405  0.99900989    -0.10500
H1185       H  0.68017367  0.25557861  0.00561177     0.09200
H1186       H  0.74140124  0.31745678  0.50238995     0.06700
H1187       H  0.65699122  0.33985374  0.99690874     0.06500
O1188       O  0.71237407  0.48776578  0.74920021    -0.71300
O1189       O  0.78496749  0.46169541  0.74919401    -0.71600
O1190       O  0.74835056  0.47501147  0.79289730    -0.71400
O1191       O  0.74885699  0.47434510  0.70553641    -0.71400
O1192       O  0.76258378  0.01643891  0.70475785    -0.71400
O1193       O  0.76394140  0.01646492  0.79242842    -0.71400
O1194       O  0.79956494  0.00349103  0.74831616    -0.71300
O1195       O  0.72698692  0.02953419  0.74894959    -0.71500
V1196       V  0.74893004  0.47553068  0.74919658     1.35200
V1197       V  0.76300230  0.01567727  0.74861034     1.35200
C1198       C  0.70730137  0.01307203  0.74908808     0.77900
C1199       C  0.80462005  0.47819640  0.74879694     0.78000
C1200       C  0.75611629  0.49576993  0.80749704     0.77800
C1201       C  0.75561121  0.49528022  0.69026907     0.77800
O1202       O  0.71998911  0.46492185  0.50134209    -0.71300
O1203       O  0.74731947  0.03722179  0.99564103    -0.71600
O1204       O  0.73336732  0.99886340  0.95489108    -0.71400
O1205       O  0.73407418  0.00357087  0.54229921    -0.71400
O1206       O  0.77312036  0.48292266  0.54282586    -0.71400
O1207       O  0.77613700  0.48818505  0.95552798    -0.71400
O1208       O  0.78820180  0.02169375  0.50215500    -0.71300
O1209       O  0.76102601  0.44943743  0.99593916    -0.71500
V1210       V  0.73438668  0.00085291  0.49859388     1.35200
V1211       V  0.77389105  0.48580009  0.49915091     1.35200
C1212       C  0.73586742  0.44479886  0.49826269     0.77900
C1213       C  0.77240713  0.04184683  0.49860828     0.78000
C1214       C  0.75500960  0.49376021  0.94026053     0.77800
C1215       C  0.75354382  0.49342950  0.55748208     0.77800
C1216       C  0.56044456  0.08466930  0.74799726     0.03600
C1217       C  0.54038946  0.06465085  0.74484392    -0.12600
C1218       C  0.54727371  0.03701514  0.74287016     0.01100
C1219       C  0.57466968  0.02939282  0.74276842    -0.11100
C1220       C  0.59523416  0.04894696  0.74644936     0.03600
C1221       C  0.58786418  0.07667358  0.74886922    -0.10500
H1222       H  0.51921621  0.07054060  0.74373142     0.09200
H1223       H  0.57985333  0.00804837  0.74043633     0.06700
H1224       H  0.60333516  0.09199272  0.75227451     0.06500
O1225       O  0.98423491  0.23736682  0.70824370    -0.71300
O1226       O  0.98589336  0.23824332  0.79559622    -0.71600
O1227       O  0.97171376  0.27421711  0.75191702    -0.71400
O1228       O  0.99856978  0.20143595  0.75249444    -0.71400
O1229       O  0.53971158  0.21666454  0.74769502    -0.71400
O1230       O  0.51315357  0.28916914  0.75290211    -0.71400
O1231       O  0.52813587  0.25067881  0.79427024    -0.71300
O1232       O  0.52452672  0.25507992  0.70675914    -0.71500
V1233       V  0.98589338  0.23808083  0.75197590     1.35200
V1234       V  0.52559630  0.25262724  0.75048330     1.35200
C1235       C  0.50389133  0.24651415  0.69254230     0.77900
C1236       C  0.50738334  0.24412018  0.80984693     0.78000
C1237       C  0.98797890  0.29410099  0.75255226     0.77800
C1238       C  0.52370901  0.19666887  0.74992498     0.77800
O1239       O  0.96127396  0.25274714  0.50115630    -0.71300
O1240       O  0.53397946  0.27848675  0.99832006    -0.71600
O1241       O  0.99691073  0.26383479  0.95641929    -0.71400
O1242       O  0.99834390  0.26758935  0.54372492    -0.71400
O1243       O  0.50873383  0.22448500  0.54585600    -0.71400
O1244       O  0.51586795  0.22377748  0.95853942    -0.71400
O1245       O  0.54840325  0.23703930  0.50578021    -0.71300
O1246       O  0.97618778  0.21104279  0.99912415    -0.71500
V1247       V  0.99788577  0.26491468  0.00001641     1.35200
V1248       V  0.51203684  0.22484079  0.00223799     1.35200
C1249       C  0.95636569  0.22745217  0.99967320     0.77900
C1250       C  0.55354542  0.26211358  0.00230620     0.78000
C1251       C  0.50674161  0.24345331  0.94262444     0.77800
C1252       C  0.50317848  0.24644980  0.55963271     0.77800
C1253       C  0.51979325  0.26494711  0.64177465    -0.20900
C1254       C  0.50289662  0.24707298  0.65844588    -0.08900
C1255       C  0.98552102  0.22954661  0.64216048     0.29900
C1256       C  0.98574931  0.22944114  0.60992996    -0.20900
C1257       C  0.50259613  0.24732057  0.59345871    -0.08900
C1258       C  0.51942946  0.26532805  0.60953120     0.30000
F1259       F  0.53621417  0.28253567  0.59402127    -0.19400
H1260       H  0.53327468  0.27869785  0.65372893     0.18300
H1261       H  0.97264335  0.21546437  0.59775776     0.18300
F1262       F  0.96885403  0.21198592  0.65730212    -0.19400
C1263       C  0.53088618  0.23615973  0.89268906    -0.20900
C1264       C  0.50705069  0.24276722  0.90876708    -0.08900
C1265       C  0.98352719  0.24956096  0.89225655     0.29900
C1266       C  0.98381692  0.24958314  0.86010237    -0.20900
C1267       C  0.50775070  0.24360833  0.84385344    -0.08900
C1268       C  0.53140634  0.23696106  0.86039775     0.30000
F1269       F  0.55479648  0.23074098  0.84541046    -0.19400
H1270       H  0.54920971  0.23098346  0.90516314     0.18300
H1271       H  0.96536575  0.25472994  0.84785451     0.18300
F1272       F  0.96011471  0.25569204  0.90727238    -0.19400
C1273       C  0.52085681  0.14863335  0.76809067    -0.20900
C1274       C  0.53406237  0.16842407  0.75013298    -0.08900
C1275       C  0.55708162  0.16094748  0.73288023     0.29900
C1276       C  0.56601242  0.13380716  0.73280852    -0.20900
C1277       C  0.55239134  0.11381761  0.75025556    -0.08900
C1278       C  0.53010372  0.12170587  0.76858421     0.30000
F1279       F  0.51742548  0.10346833  0.78732947    -0.19400
H1280       H  0.50350379  0.15412828  0.78213621     0.18300
H1281       H  0.58311861  0.12826467  0.71841681     0.18300
F1282       F  0.57026206  0.17959767  0.71514007    -0.19400
C1283       C  0.65880067  0.00719531  0.76332093    -0.20900
C1284       C  0.67901161  0.02297707  0.74918363    -0.08900
C1285       C  0.67181113  0.04785327  0.73508805     0.29900
C1286       C  0.64464188  0.05618614  0.73427777    -0.20900
C1287       C  0.62422203  0.04025673  0.74816928    -0.08900
C1288       C  0.63181501  0.01587179  0.76338569     0.30000
F1289       F  0.61340033  0.50066870  0.77915187    -0.19400
H1290       H  0.66400126  0.48825570  0.77490136     0.18300
H1291       H  0.63955851  0.07490677  0.72222786     0.18300
F1292       F  0.69085815  0.06365954  0.72116144    -0.19400
C1293       C  0.74516233  0.01740808  0.63979013    -0.20900
C1294       C  0.75524265  0.49490809  0.65634267    -0.08900
C1295       C  0.76455471  0.47191063  0.64023587     0.28100
C1296       C  0.76414241  0.47167299  0.60803026    -0.20900
C1297       C  0.75363757  0.49395768  0.59144843    -0.08900
C1298       C  0.74393425  0.01681665  0.60757776     0.30000
F1299       F  0.73399487  0.03884750  0.59218668    -0.19400
H1300       H  0.73780525  0.03525140  0.65186290     0.18300
H1301       H  0.77173612  0.45390539  0.59600438     0.18300
F1302       F  0.77467937  0.44996269  0.65562751    -0.19400
C1303       C  0.73165316  0.48939959  0.88964302    -0.20900
C1304       C  0.75554346  0.49438182  0.90622742    -0.08900
C1305       C  0.77964746  0.50015224  0.88996929     0.29900
C1306       C  0.77960939  0.50122545  0.85773377    -0.20900
C1307       C  0.75581661  0.49574750  0.84132729    -0.08900
C1308       C  0.73184821  0.48968562  0.85743608     0.30000
F1309       F  0.70851703  0.48459768  0.84197931    -0.19400
H1310       H  0.71288357  0.48489577  0.90163187     0.18300
H1311       H  0.79826272  0.50580613  0.84553440     0.18300
F1312       F  0.80310372  0.50523643  0.90517820    -0.19400
C1313       C  0.69319244  0.38156309  0.01242149    -0.20900
C1314       C  0.70812199  0.36155569  0.49649345    -0.08900
C1315       C  0.73123691  0.36974716  0.47963093     0.29900
C1316       C  0.74002449  0.39680134  0.48043541    -0.20900
C1317       C  0.72552761  0.41653736  0.49704322    -0.08900
C1318       C  0.70156234  0.40884059  0.01239491     0.30000
F1319       F  0.68681095  0.42740041  0.02843039    -0.19400
H1320       H  0.67541091  0.37601270  0.02570341     0.18300
H1321       H  0.75812282  0.40241170  0.46771448     0.18300
F1322       F  0.74519949  0.35177477  0.46191839    -0.19400
C1323       C  0.61828402  0.29891352  0.98080069    -0.20900
C1324       C  0.63635358  0.28885314  0.00317040    -0.08900
C1325       C  0.62666001  0.27059911  0.52580664     0.29900
C1326       C  0.59965632  0.26198504  0.52537250    -0.20900
C1327       C  0.58174297  0.27188051  0.00285793    -0.08900
C1328       C  0.59115768  0.29059062  0.98067700     0.30000
F1329       F  0.57443864  0.29987331  0.95810763    -0.19400
H1330       H  0.62534181  0.31275480  0.96299092     0.18300
H1331       H  0.59261167  0.24780335  0.54285912     0.18300
F1332       F  0.64316000  0.26147643  0.54867291    -0.19400
C1333       C  0.50589068  0.47396015  0.72466469    -0.20900
C1334       C  0.98524690  0.47569404  0.74693451    -0.08900
C1335       C  0.98493301  0.99777678  0.76739782     0.29900
C1336       C  0.00499560  0.01772669  0.76558199    -0.20900
C1337       C  0.52570060  0.01606779  0.74335153    -0.08900
C1338       C  0.52593431  0.49402766  0.72273821     0.30000
F1339       F  0.54514256  0.49220149  0.70037314    -0.19400
H1340       H  0.50625610  0.45720035  0.70850791     0.18300
H1341       H  0.00467848  0.03426690  0.78202705     0.18300
F1342       F  0.96570168  0.99960356  0.78974827    -0.19400
C1343       C  0.86791934  0.43649795  0.73319033    -0.20900
C1344       C  0.88731477  0.45048945  0.75074068    -0.08900
C1345       C  0.87892012  0.47320243  0.76817956     0.29900
C1346       C  0.85206234  0.48219995  0.76706265    -0.20900
C1347       C  0.83283869  0.46831926  0.74940830    -0.08900
C1348       C  0.84084571  0.44517581  0.73270131     0.30000
F1349       F  0.82273947  0.43159644  0.71501096    -0.19400
H1350       H  0.87381532  0.41917775  0.71930750     0.18300
H1351       H  0.84612642  0.99978355  0.78052994     0.18300
F1352       F  0.89650491  0.48641348  0.78688727    -0.19400
C1353       C  0.98268360  0.36924620  0.73451153    -0.20900
C1354       C  0.95979041  0.37719885  0.75174505    -0.08900
C1355       C  0.94590919  0.35715023  0.76911406     0.29900
C1356       C  0.95477318  0.32994812  0.76884180    -0.20900
C1357       C  0.97805228  0.32247157  0.75219729    -0.08900
C1358       C  0.99199815  0.34238825  0.73513317     0.30000
F1359       F  0.51431626  0.33574820  0.71835460    -0.19400
H1360       H  0.49347686  0.38385627  0.72028895     0.18300
H1361       H  0.94393752  0.31485817  0.78239248     0.18300
F1362       F  0.92450386  0.36386132  0.78729984    -0.19400
C1363       C  0.75584107  0.26397033  0.98291052    -0.20900
C1364       C  0.73470055  0.26306598  0.00464007    -0.08900
C1365       C  0.73435660  0.24189787  0.52670414     0.29900
C1366       C  0.75477404  0.22199461  0.52677456    -0.20900
C1367       C  0.77591989  0.22300129  0.00504879    -0.08900
C1368       C  0.77623216  0.24416224  0.98302188     0.30000
F1369       F  0.79579733  0.24518445  0.96096647    -0.19400
H1370       H  0.75630754  0.27985088  0.96544286     0.18300
H1371       H  0.75426345  0.20593213  0.54402048     0.18300
F1372       F  0.71470120  0.24085350  0.54863651    -0.19400
C1373       C  0.92162562  0.19235011  0.01306718    -0.20900
C1374       C  0.92821803  0.21723174  0.99875776    -0.08900
C1375       C  0.90771363  0.23216349  0.48382772     0.29900
C1376       C  0.88110586  0.22240585  0.48349171    -0.20900
C1377       C  0.87412270  0.19794333  0.99875345    -0.08900
C1378       C  0.89484300  0.18291152  0.01349338     0.30000
F1379       F  0.88916108  0.15978204  0.02956025    -0.19400
H1380       H  0.93712762  0.18061255  0.02486843     0.18300
H1381       H  0.86588591  0.23416615  0.47128128     0.18300
F1382       F  0.91345621  0.25595838  0.46905954    -0.19400
C1383       C  0.77816196  0.11759243  0.98240391    -0.20900
C1384       C  0.80186026  0.12455327  0.49852074    -0.08900
C1385       C  0.81647018  0.10363898  0.51361959     0.29900
C1386       C  0.80715006  0.07666535  0.51296527    -0.20900
C1387       C  0.78289301  0.07008688  0.49785357    -0.08900
C1388       C  0.76859765  0.09081947  0.98230192     0.30000
F1389       F  0.74549156  0.08520918  0.96664727    -0.19400
H1390       H  0.76682021  0.13299837  0.96987576     0.18300
H1391       H  0.81847598  0.06102734  0.52516334     0.18300
F1392       F  0.83902524  0.10933593  0.53020874    -0.19400
C1393       C  0.81016920  0.65373314  0.00047658     0.03600
C1394       C  0.83759365  0.66159284  0.99811421    -0.12600
C1395       C  0.84513569  0.68924930  0.50033748     0.01100
C1396       C  0.82467030  0.70903872  0.50373807    -0.11100
C1397       C  0.79726485  0.70168745  0.50472910     0.03600
C1398       C  0.79022458  0.67406482  0.00401506    -0.10500
H1399       H  0.85294400  0.64627997  0.99371596     0.09200
H1400       H  0.82996246  0.73038180  0.50576771     0.06700
H1401       H  0.76901885  0.66849774  0.00561612     0.06500
C1402       C  0.95133667  0.90644636  0.25159840     0.03600
C1403       C  0.92377760  0.91421025  0.25130884    -0.12600
C1404       C  0.91628513  0.94195794  0.25022082     0.01100
C1405       C  0.93665465  0.96183447  0.24817116    -0.11100
C1406       C  0.96406531  0.95449068  0.24868491     0.03600
C1407       C  0.97125980  0.92693422  0.25074954    -0.10500
H1408       H  0.90814496  0.89877404  0.25167982     0.09200
H1409       H  0.93123300  0.98316085  0.24562726     0.06700
H1410       H  0.99256122  0.92155412  0.25193987     0.06500
C1411       C  0.66533043  0.79693205  0.50236401     0.03600
C1412       C  0.68570979  0.77693363  0.50439131    -0.12600
C1413       C  0.71317375  0.78424269  0.50379751     0.01100
C1414       C  0.72019197  0.81188069  0.00140731    -0.11100
C1415       C  0.70018177  0.83224893  0.99861326     0.03600
C1416       C  0.67270935  0.82448481  0.49901149    -0.10500
H1417       H  0.68017355  0.75557930  0.50561215     0.09200
H1418       H  0.74140133  0.81745625  0.00238956     0.06700
H1419       H  0.65699119  0.83985456  0.49691084     0.06500
O1420       O  0.71237536  0.98776529  0.24919810    -0.71300
O1421       O  0.78496905  0.96169596  0.24919602    -0.71600
O1422       O  0.74835023  0.97501196  0.29289724    -0.71400
O1423       O  0.74886030  0.97434477  0.20553624    -0.71400
O1424       O  0.76258388  0.51643985  0.20475812    -0.71400
O1425       O  0.76394267  0.51646485  0.29242860    -0.71400
O1426       O  0.79956602  0.50349174  0.24831574    -0.71300
O1427       O  0.72698764  0.52953406  0.24895037    -0.71500
V1428       V  0.74893149  0.97553073  0.24919649     1.35200
V1429       V  0.76300316  0.51567762  0.24861054     1.35200
C1430       C  0.70730234  0.51307161  0.24908699     0.77900
C1431       C  0.80462143  0.97819714  0.24879805     0.78000
C1432       C  0.75611650  0.99577018  0.30749707     0.77800
C1433       C  0.75561293  0.99528063  0.19026933     0.77800
O1434       O  0.71998896  0.96492094  0.00134079    -0.71300
O1435       O  0.74732012  0.53722243  0.49564002    -0.71600
O1436       O  0.73336711  0.49886339  0.45489124    -0.71400
O1437       O  0.73407279  0.50356882  0.04229918    -0.71400
O1438       O  0.77312038  0.98292312  0.04282606    -0.71400
O1439       O  0.77613736  0.98818640  0.45552790    -0.71400
O1440       O  0.78820120  0.52169338  0.00215419    -0.71300
O1441       O  0.76102606  0.94943809  0.49593809    -0.71500
V1442       V  0.73438609  0.50085207  0.99859374     1.35200
V1443       V  0.77389090  0.98579962  0.99915106     1.35200
C1444       C  0.73586754  0.94479807  0.99826240     0.77900
C1445       C  0.77240628  0.54184637  0.99860845     0.78000
C1446       C  0.75500969  0.99376084  0.44026058     0.77800
C1447       C  0.75354318  0.99342870  0.05748240     0.77800
C1448       C  0.56044594  0.58466912  0.24799619     0.03600
C1449       C  0.54039059  0.56465080  0.24484352    -0.12600
C1450       C  0.54727462  0.53701502  0.24286976     0.01100
C1451       C  0.57467054  0.52939252  0.24276735    -0.11100
C1452       C  0.59523521  0.54894650  0.24644779     0.03600
C1453       C  0.58786551  0.57667320  0.24886761    -0.10500
H1454       H  0.51921736  0.57054070  0.24373164     0.09200
H1455       H  0.57985398  0.50804804  0.24043526     0.06700
H1456       H  0.60333668  0.59199222  0.25227254     0.06500
O1457       O  0.98423727  0.73736676  0.20824383    -0.71300
O1458       O  0.98589588  0.73824335  0.29559625    -0.71600
O1459       O  0.97171586  0.77421697  0.25191710    -0.71400
O1460       O  0.99857241  0.70143607  0.25249449    -0.71400
O1461       O  0.53971417  0.71666484  0.24769521    -0.71400
O1462       O  0.51315549  0.78916943  0.25290168    -0.71400
O1463       O  0.52813825  0.75067940  0.29427023    -0.71300
O1464       O  0.52452890  0.75507993  0.20675906    -0.71500
V1465       V  0.98589580  0.73808084  0.25197598     1.35200
V1466       V  0.52559859  0.75262755  0.25048323     1.35200
C1467       C  0.50389352  0.74651396  0.19254237     0.77900
C1468       C  0.50738581  0.74412049  0.30984696     0.78000
C1469       C  0.98798079  0.79410101  0.25255226     0.77800
C1470       C  0.52371165  0.69666909  0.24992506     0.77800
O1471       O  0.96127392  0.75274632  0.00115752    -0.71300
O1472       O  0.53397959  0.77848716  0.49832070    -0.71600
O1473       O  0.99691175  0.76383531  0.45641897    -0.71400
O1474       O  0.99834474  0.76758855  0.04372522    -0.71400
O1475       O  0.50873464  0.72448428  0.04585598    -0.71400
O1476       O  0.51586884  0.72377783  0.45853968    -0.71400
O1477       O  0.54840328  0.73703879  0.00577934    -0.71300
O1478       O  0.97618783  0.71104341  0.49912345    -0.71500
V1479       V  0.99788582  0.76491526  0.50001610     1.35200
V1480       V  0.51203683  0.72484128  0.50223817     1.35200
C1481       C  0.95636574  0.72745282  0.49967204     0.77900
C1482       C  0.55354549  0.76211398  0.50230720     0.78000
C1483       C  0.50674287  0.74345366  0.44262444     0.77800
C1484       C  0.50317953  0.74644907  0.05963284     0.77800
C1485       C  0.51979530  0.76494646  0.14177448    -0.20900
C1486       C  0.50289871  0.74707248  0.15844597    -0.08900
C1487       C  0.98552330  0.72954594  0.14216083     0.29900
C1488       C  0.98575135  0.72944027  0.10993031    -0.20900
C1489       C  0.50259766  0.74731981  0.09345883    -0.08900
C1490       C  0.51943126  0.76532721  0.10953102     0.30000
F1491       F  0.53621591  0.78253467  0.09402080    -0.19400
H1492       H  0.53327682  0.77869724  0.15372851     0.18300
H1493       H  0.97264531  0.71546343  0.09775834     0.18300
F1494       F  0.96885647  0.71198523  0.15730269    -0.19400
C1495       C  0.53088828  0.73616068  0.39268936    -0.20900
C1496       C  0.50705243  0.74276748  0.40876709    -0.08900
C1497       C  0.98352904  0.74956106  0.39225625     0.29900
C1498       C  0.98381909  0.74958328  0.36010212    -0.20900
C1499       C  0.50775306  0.74360872  0.34385347    -0.08900
C1500       C  0.53140872  0.73696204  0.36039803     0.30000
F1501       F  0.55479914  0.73074256  0.34541097    -0.19400
H1502       H  0.54921181  0.73098491  0.40516369     0.18300
H1503       H  0.96536795  0.75472989  0.34785407     0.18300
F1504       F  0.96011633  0.75569181  0.40727178    -0.19400
C1505       C  0.52085964  0.64863370  0.26809111    -0.20900
C1506       C  0.53406491  0.66842426  0.25013289    -0.08900
C1507       C  0.55708346  0.66094737  0.23287914     0.29900
C1508       C  0.56601385  0.63380690  0.23280702    -0.20900
C1509       C  0.55239305  0.61381752  0.25025463    -0.08900
C1510       C  0.53010612  0.62170607  0.26858419     0.30000
F1511       F  0.51742817  0.60346869  0.28732994    -0.19400
H1512       H  0.50350716  0.65412890  0.28213737     0.18300
H1513       H  0.58311951  0.62826417  0.21841461     0.18300
F1514       F  0.57026355  0.67959743  0.21513846    -0.19400
C1515       C  0.65880155  0.50719447  0.26331908    -0.20900
C1516       C  0.67901251  0.52297625  0.24918187    -0.08900
C1517       C  0.67181205  0.54785229  0.23508599     0.29900
C1518       C  0.64464285  0.55618520  0.23427564    -0.20900
C1519       C  0.62422300  0.54025600  0.24816741    -0.08900
C1520       C  0.63181591  0.51587103  0.26338384     0.30000
F1521       F  0.61340130  0.00066827  0.27915056    -0.19400
H1522       H  0.66400220  0.98825502  0.27489992     0.18300
H1523       H  0.63955952  0.57490579  0.22222561     0.18300
F1524       F  0.69085910  0.56365849  0.22115936    -0.19400
C1525       C  0.74513637  0.51739703  0.13979217    -0.20900
C1526       C  0.75524407  0.99490884  0.15634340    -0.08900
C1527       C  0.76458066  0.97192188  0.14023617     0.28100
C1528       C  0.76416708  0.97168377  0.10803062    -0.20900
C1529       C  0.75363705  0.99395693  0.09144925    -0.08900
C1530       C  0.74390725  0.51680441  0.10757989     0.30000
F1531       F  0.73394049  0.53882363  0.09219050    -0.19400
H1532       H  0.73775878  0.53523135  0.15186605     0.18300
H1533       H  0.77177999  0.95392450  0.09600453     0.18300
F1534       F  0.77473040  0.94998557  0.15562758    -0.19400
C1535       C  0.73165315  0.98939998  0.38964307    -0.20900
C1536       C  0.75554339  0.99438252  0.40622747    -0.08900
C1537       C  0.77964729  0.00015332  0.38996933     0.29900
C1538       C  0.77960924  0.00122639  0.35773384    -0.20900
C1539       C  0.75581659  0.99574792  0.34132733    -0.08900
C1540       C  0.73184821  0.98968589  0.35743611     0.30000
F1541       F  0.70851710  0.98459764  0.34197933    -0.19400
H1542       H  0.71288359  0.98489594  0.40163193     0.18300
H1543       H  0.79826250  0.00580734  0.34553449     0.18300
F1544       F  0.80310344  0.00523804  0.40517823    -0.19400
C1545       C  0.69319275  0.88156383  0.51242322    -0.20900
C1546       C  0.70812215  0.86155499  0.99649230    -0.08900
C1547       C  0.73123750  0.86974640  0.97963047     0.29900
C1548       C  0.74002517  0.89680055  0.98043534    -0.20900
C1549       C  0.72552789  0.91653658  0.99704271    -0.08900
C1550       C  0.70156269  0.90884136  0.51239644     0.30000
F1551       F  0.68681167  0.92740118  0.52843239    -0.19400
H1552       H  0.67541155  0.87601342  0.52570563     0.18300
H1553       H  0.75812380  0.90241092  0.96771496     0.18300
F1554       F  0.74520035  0.85177400  0.96191817    -0.19400
C1555       C  0.61828394  0.79891437  0.48080220    -0.20900
C1556       C  0.63635354  0.78885385  0.50317180    -0.08900
C1557       C  0.62666003  0.77059844  0.02580539     0.29900
C1558       C  0.59965630  0.76198445  0.02537136    -0.20900
C1559       C  0.58174302  0.77188096  0.50285909    -0.08900
C1560       C  0.59115765  0.79059131  0.48067838     0.30000
F1561       F  0.57443868  0.79987388  0.45810887    -0.19400
H1562       H  0.62534166  0.81275574  0.46299253     0.18300
H1563       H  0.59261169  0.74780269  0.04285794     0.18300
F1564       F  0.64316004  0.76147573  0.04867161    -0.19400
C1565       C  0.50589142  0.97395974  0.22466607    -0.20900
C1566       C  0.98524826  0.97569359  0.24693687    -0.08900
C1567       C  0.98493452  0.49777676  0.26739955     0.29900
C1568       C  0.00499692  0.51772682  0.26558279    -0.20900
C1569       C  0.52570148  0.51606768  0.24335196    -0.08900
C1570       C  0.52593491  0.99402733  0.22273882     0.30000
F1571       F  0.54514278  0.99220101  0.20037335    -0.19400
H1572       H  0.50625652  0.95719987  0.20850940     0.18300
H1573       H  0.00468005  0.53426723  0.28202756     0.18300
F1574       F  0.96570378  0.49960371  0.28975061    -0.19400
C1575       C  0.86792060  0.93649789  0.23319390    -0.20900
C1576       C  0.88731596  0.95048962  0.25074409    -0.08900
C1577       C  0.87892128  0.97320320  0.26818204     0.29900
C1578       C  0.85206363  0.98220111  0.26706417    -0.20900
C1579       C  0.83284009  0.96832009  0.24940999    -0.08900
C1580       C  0.84084708  0.94517599  0.23270414     0.30000
F1581       F  0.82274089  0.93159615  0.21501417    -0.19400
H1582       H  0.87381654  0.91917728  0.21931169     0.18300
H1583       H  0.84612763  0.49978525  0.28053052     0.18300
F1584       F  0.89650593  0.98641461  0.28688960    -0.19400
C1585       C  0.98268397  0.86924617  0.23451177    -0.20900
C1586       C  0.95979139  0.87719856  0.25174654    -0.08900
C1587       C  0.94591085  0.85714971  0.26911586     0.29900
C1588       C  0.95477510  0.82994768  0.26884304    -0.20900
C1589       C  0.97805378  0.82247145  0.25219758    -0.08900
C1590       C  0.99199875  0.84238828  0.23513275     0.30000
F1591       F  0.51431573  0.83574831  0.21835213    -0.19400
H1592       H  0.49347629  0.88385635  0.22028823     0.18300
H1593       H  0.94394000  0.81485755  0.28239404     0.18300
F1594       F  0.92450593  0.86386046  0.28730242    -0.19400
C1595       C  0.75584119  0.76397123  0.48291098    -0.20900
C1596       C  0.73470039  0.76306643  0.50464014    -0.08900
C1597       C  0.73435723  0.74189805  0.02670483     0.29900
C1598       C  0.75477468  0.72199480  0.02677542    -0.20900
C1599       C  0.77591974  0.72300169  0.50504846    -0.08900
C1600       C  0.77623223  0.74416309  0.48302210     0.30000
F1601       F  0.79579761  0.74518579  0.46096697    -0.19400
H1602       H  0.75630796  0.77985219  0.46544382     0.18300
H1603       H  0.75426441  0.70593271  0.04402180     0.18300
F1604       F  0.71470221  0.74085427  0.04863769    -0.19400
C1605       C  0.92162575  0.69235082  0.51306604    -0.20900
C1606       C  0.92821809  0.71723241  0.49875652    -0.08900
C1607       C  0.90771377  0.73216259  0.98382860     0.29900
C1608       C  0.88110606  0.72240491  0.98349216    -0.20900
C1609       C  0.87412274  0.69794405  0.49875282    -0.08900
C1610       C  0.89484316  0.68291223  0.51349248     0.30000
F1611       F  0.88916136  0.65978283  0.52955953    -0.19400
H1612       H  0.93712780  0.68061327  0.52486724     0.18300
H1613       H  0.86588622  0.73416518  0.97128150     0.18300
F1614       F  0.91345647  0.75595742  0.96906040    -0.19400
C1615       C  0.77816284  0.61759271  0.48240304    -0.20900
C1616       C  0.80185971  0.62455275  0.99852070    -0.08900
C1617       C  0.81646994  0.60363823  0.01361876     0.29900
C1618       C  0.80714960  0.57666469  0.01296457    -0.20900
C1619       C  0.78289204  0.57008647  0.99785381    -0.08900
C1620       C  0.76859872  0.59081969  0.48230083     0.30000
F1621       F  0.74549305  0.58520918  0.46664547    -0.19400
H1622       H  0.76682129  0.63299856  0.46987448     0.18300
H1623       H  0.81847580  0.56102654  0.02516206     0.18300
F1624       F  0.83902550  0.60933485  0.03020716    -0.19400
C1625       C  0.81016947  0.65373372  0.50047647     0.03600
C1626       C  0.83759385  0.66159353  0.49811407    -0.12600
C1627       C  0.84513564  0.68924854  0.00033786     0.01100
C1628       C  0.82467033  0.70903805  0.00373853    -0.11100
C1629       C  0.79726487  0.70168691  0.00472952     0.03600
C1630       C  0.79022473  0.67406529  0.50401479    -0.10500
H1631       H  0.85294423  0.64628070  0.49371587     0.09200
H1632       H  0.82996257  0.73038111  0.00576825     0.06700
H1633       H  0.76901903  0.66849803  0.50561577     0.06500
C1634       C  0.95133570  0.90644660  0.75159586     0.03600
C1635       C  0.92377661  0.91421031  0.75130539    -0.12600
C1636       C  0.91628401  0.94195792  0.75021708     0.01100
C1637       C  0.93665340  0.96183459  0.74816765    -0.11100
C1638       C  0.96406409  0.95449099  0.74868200     0.03600
C1639       C  0.97125873  0.92693460  0.75074713    -0.10500
H1640       H  0.90814401  0.89877403  0.75167619     0.09200
H1641       H  0.93123160  0.98316095  0.74562379     0.06700
H1642       H  0.99256014  0.92155471  0.75193818     0.06500
C1643       C  0.66533054  0.79693135  0.00236266     0.03600
C1644       C  0.68570991  0.77693297  0.00439058    -0.12600
C1645       C  0.71317387  0.78424208  0.00379697     0.01100
C1646       C  0.72019186  0.81188133  0.50140802    -0.11100
C1647       C  0.70018163  0.83224963  0.49861449     0.03600
C1648       C  0.67270949  0.82448408  0.99900985    -0.10500
H1649       H  0.68017372  0.75557863  0.00561177     0.09200
H1650       H  0.74140124  0.81745688  0.50238997     0.06700
H1651       H  0.65699135  0.83985379  0.99690876     0.06500
O1652       O  0.71237407  0.98776575  0.74920039    -0.71300
O1653       O  0.78496748  0.96169533  0.74919398    -0.71600
O1654       O  0.74835068  0.97501138  0.79289732    -0.71400
O1655       O  0.74885686  0.97434508  0.70553646    -0.71400
O1656       O  0.76258360  0.51643905  0.70475790    -0.71400
O1657       O  0.76394139  0.51646496  0.79242847    -0.71400
O1658       O  0.79956490  0.50349112  0.74831609    -0.71300
O1659       O  0.72698686  0.52953424  0.74894978    -0.71500
V1660       V  0.74893004  0.97553063  0.74919662     1.35200
V1661       V  0.76300224  0.51567735  0.74861039     1.35200
C1662       C  0.70730134  0.51307205  0.74908808     0.77900
C1663       C  0.80462006  0.97819631  0.74879698     0.78000
C1664       C  0.75611636  0.99576988  0.80749702     0.77800
C1665       C  0.75561123  0.99528012  0.69026906     0.77800
O1666       O  0.71998927  0.96492179  0.50134231    -0.71300
O1667       O  0.74731941  0.53722175  0.99564098    -0.71600
O1668       O  0.73336720  0.49886332  0.95489109    -0.71400
O1669       O  0.73407393  0.50357079  0.54229915    -0.71400
O1670       O  0.77312048  0.98292245  0.54282586    -0.71400
O1671       O  0.77613710  0.98818510  0.95552797    -0.71400
O1672       O  0.78820165  0.52169383  0.50215481    -0.71300
O1673       O  0.76102611  0.94943749  0.99593921    -0.71500
V1674       V  0.73438652  0.50085297  0.49859382     1.35200
V1675       V  0.77389119  0.98580001  0.49915092     1.35200
C1676       C  0.73586756  0.94479880  0.49826270     0.77900
C1677       C  0.77240694  0.54184690  0.49860827     0.78000
C1678       C  0.75500971  0.99376026  0.94026052     0.77800
C1679       C  0.75354402  0.99342943  0.55748208     0.77800
C1680       C  0.56044458  0.58466930  0.74799732     0.03600
C1681       C  0.54038945  0.56465088  0.74484394    -0.12600
C1682       C  0.54727366  0.53701518  0.74287011     0.01100
C1683       C  0.57466964  0.52939282  0.74276822    -0.11100
C1684       C  0.59523413  0.54894694  0.74644922     0.03600
C1685       C  0.58786419  0.57667354  0.74886920    -0.10500
H1686       H  0.51921618  0.57054067  0.74373150     0.09200
H1687       H  0.57985327  0.50804841  0.74043605     0.06700
H1688       H  0.60333520  0.59199264  0.75227457     0.06500
O1689       O  0.98423504  0.73736687  0.70824371    -0.71300
O1690       O  0.98589354  0.73824339  0.79559623    -0.71600
O1691       O  0.97171393  0.77421714  0.75191702    -0.71400
O1692       O  0.99856991  0.70143597  0.75249444    -0.71400
O1693       O  0.53971173  0.71666454  0.74769513    -0.71400
O1694       O  0.51315367  0.78916913  0.75290186    -0.71400
O1695       O  0.52813596  0.75067891  0.79427022    -0.71300
O1696       O  0.52452688  0.75507977  0.70675908    -0.71500
V1697       V  0.98589354  0.73808087  0.75197591     1.35200
V1698       V  0.52559642  0.75262724  0.75048326     1.35200
C1699       C  0.50389146  0.74651399  0.69254229     0.77900
C1700       C  0.50738344  0.74412026  0.80984695     0.78000
C1701       C  0.98797907  0.79410101  0.75255224     0.77800
C1702       C  0.52370916  0.69666887  0.74992512     0.77800
O1703       O  0.96127396  0.75274711  0.50115630    -0.71300
O1704       O  0.53397943  0.77848676  0.99832007    -0.71600
O1705       O  0.99691073  0.76383464  0.95641932    -0.71400
O1706       O  0.99834390  0.76758932  0.54372493    -0.71400
O1707       O  0.50873377  0.72448486  0.54585607    -0.71400
O1708       O  0.51586806  0.72377744  0.95853949    -0.71400
O1709       O  0.54840325  0.73703917  0.50578035    -0.71300
O1710       O  0.97618786  0.71104266  0.99912410    -0.71500
V1711       V  0.99788574  0.76491455  0.00001642     1.35200
V1712       V  0.51203686  0.72484077  0.00223804     1.35200
C1713       C  0.95636574  0.72745202  0.99967314     0.77900
C1714       C  0.55354541  0.76211361  0.00230620     0.78000
C1715       C  0.50674172  0.74345327  0.94262451     0.77800
C1716       C  0.50317838  0.74644967  0.55963277     0.77800
C1717       C  0.51979326  0.76494700  0.64177465    -0.20900
C1718       C  0.50289670  0.74707281  0.65844590    -0.08900
C1719       C  0.98552114  0.72954659  0.64216049     0.29900
C1720       C  0.98574941  0.72944113  0.60992995    -0.20900
C1721       C  0.50259601  0.74732049  0.59345877    -0.08900
C1722       C  0.51942939  0.76532795  0.60953121     0.30000
F1723       F  0.53621410  0.78253553  0.59402125    -0.19400
H1724       H  0.53327468  0.77869776  0.65372887     0.18300
H1725       H  0.97264338  0.71546444  0.59775776     0.18300
F1726       F  0.96885401  0.71198601  0.65730212    -0.19400
C1727       C  0.53088643  0.73616021  0.89268914    -0.20900
C1728       C  0.50705080  0.74276718  0.90876717    -0.08900
C1729       C  0.98352725  0.74956048  0.89225658     0.29900
C1730       C  0.98381701  0.74958262  0.86010242    -0.20900
C1731       C  0.50775080  0.74360838  0.84385350    -0.08900
C1732       C  0.53140658  0.73696162  0.86039782     0.30000
F1733       F  0.55479688  0.73074224  0.84541049    -0.19400
H1734       H  0.54921008  0.73098433  0.90516323     0.18300
H1735       H  0.96536573  0.75472914  0.84785456     0.18300
F1736       F  0.96011469  0.75569128  0.90727240    -0.19400
C1737       C  0.52085698  0.64863340  0.76809086    -0.20900
C1738       C  0.53406254  0.66842409  0.75013313    -0.08900
C1739       C  0.55708174  0.66094747  0.73288029     0.29900
C1740       C  0.56601248  0.63380713  0.73280859    -0.20900
C1741       C  0.55239142  0.61381762  0.75025570    -0.08900
C1742       C  0.53010384  0.62170591  0.76858439     0.30000
F1743       F  0.51742561  0.60346840  0.78732971    -0.19400
H1744       H  0.50350399  0.65412840  0.78213641     0.18300
H1745       H  0.58311863  0.62826456  0.71841681     0.18300
F1746       F  0.57026218  0.67959766  0.71514011    -0.19400
C1747       C  0.65880064  0.50719519  0.76332075    -0.20900
C1748       C  0.67901158  0.52297703  0.74918360    -0.08900
C1749       C  0.67181111  0.54785326  0.73508808     0.29900
C1750       C  0.64464187  0.55618612  0.73427779    -0.20900
C1751       C  0.62422200  0.54025667  0.74816918    -0.08900
C1752       C  0.63181497  0.51587164  0.76338546     0.30000
F1753       F  0.61340039  0.00066901  0.77915233    -0.19400
H1754       H  0.66400129  0.98825589  0.77490165     0.18300
H1755       H  0.63955853  0.57490681  0.72222795     0.18300
F1756       F  0.69085813  0.56365962  0.72116163    -0.19400
C1757       C  0.74515948  0.51740706  0.63979034    -0.20900
C1758       C  0.75524268  0.99490791  0.65634261    -0.08900
C1759       C  0.76455206  0.97190928  0.64023588     0.28100
C1760       C  0.76413991  0.97167166  0.60803028    -0.20900
C1761       C  0.75363781  0.99395759  0.59144838    -0.08900
C1762       C  0.74393128  0.51681555  0.60757798     0.30000
F1763       F  0.73398915  0.53884529  0.59218711    -0.19400
H1764       H  0.73780030  0.53524945  0.65186327     0.18300
H1765       H  0.77173157  0.95390315  0.59600443     0.18300
F1766       F  0.77467405  0.94996011  0.65562754    -0.19400
C1767       C  0.73165318  0.98939975  0.88964302    -0.20900
C1768       C  0.75554351  0.99438186  0.90622741    -0.08900
C1769       C  0.77964752  0.00015214  0.88996927     0.29900
C1770       C  0.77960946  0.00122533  0.85773375    -0.20900
C1771       C  0.75581665  0.99574751  0.84132727    -0.08900
C1772       C  0.73184820  0.98968580  0.85743607     0.30000
F1773       F  0.70851698  0.98459797  0.84197931    -0.19400
H1774       H  0.71288356  0.98489597  0.90163189     0.18300
H1775       H  0.79826281  0.00580589  0.84553439     0.18300
F1776       F  0.80310382  0.00523617  0.90517819    -0.19400
C1777       C  0.69319252  0.88156314  0.01242153    -0.20900
C1778       C  0.70812197  0.86155569  0.49649343    -0.08900
C1779       C  0.73123688  0.86974711  0.47963086     0.29900
C1780       C  0.74002452  0.89680127  0.48043536    -0.20900
C1781       C  0.72552772  0.91653731  0.49704328    -0.08900
C1782       C  0.70156240  0.90884066  0.01239496     0.30000
F1783       F  0.68681093  0.92740047  0.02843036    -0.19400
H1784       H  0.67541099  0.87601273  0.02570339     0.18300
H1785       H  0.75812279  0.90241159  0.46771434     0.18300
F1786       F  0.74519937  0.85177469  0.46191823    -0.19400
C1787       C  0.61828396  0.79891379  0.98080086    -0.20900
C1788       C  0.63635360  0.78885321  0.00317037    -0.08900
C1789       C  0.62666003  0.77059897  0.52580676     0.29900
C1790       C  0.59965632  0.76198491  0.52537263    -0.20900
C1791       C  0.58174295  0.77188059  0.00285793    -0.08900
C1792       C  0.59115761  0.79059089  0.98067719     0.30000
F1793       F  0.57443856  0.79987361  0.95810785    -0.19400
H1794       H  0.62534169  0.81275517  0.96299117     0.18300
H1795       H  0.59261169  0.74780313  0.54285918     0.18300
F1796       F  0.64316010  0.76147612  0.54867287    -0.19400
C1797       C  0.50589072  0.97396017  0.72466460    -0.20900
C1798       C  0.98524697  0.97569402  0.74693464    -0.08900
C1799       C  0.98493287  0.49777687  0.76739759     0.29900
C1800       C  0.00499548  0.51772676  0.76558178    -0.20900
C1801       C  0.52570053  0.51606783  0.74335152    -0.08900
C1802       C  0.52593439  0.99402763  0.72273819     0.30000
F1803       F  0.54514270  0.99220139  0.70037318    -0.19400
H1804       H  0.50625612  0.95720041  0.70850782     0.18300
H1805       H  0.00467835  0.53426697  0.78202684     0.18300
F1806       F  0.96570154  0.49960369  0.78974802    -0.19400
C1807       C  0.86791941  0.93649794  0.73319031    -0.20900
C1808       C  0.88731482  0.95048940  0.75074073    -0.08900
C1809       C  0.87892015  0.97320230  0.76817972     0.29900
C1810       C  0.85206236  0.98219985  0.76706276    -0.20900
C1811       C  0.83283871  0.96831916  0.74940836    -0.08900
C1812       C  0.84084577  0.94517574  0.73270134     0.30000
F1813       F  0.82273957  0.93159632  0.71501095    -0.19400
H1814       H  0.87381541  0.91917782  0.71930738     0.18300
H1815       H  0.84612643  0.49978367  0.78052983     0.18300
F1816       F  0.89650496  0.98641332  0.78688746    -0.19400
C1817       C  0.98268374  0.86924621  0.73451154    -0.20900
C1818       C  0.95979053  0.87719884  0.75174504    -0.08900
C1819       C  0.94590932  0.85715019  0.76911402     0.29900
C1820       C  0.95477329  0.82994808  0.76884170    -0.20900
C1821       C  0.97805245  0.82247157  0.75219725    -0.08900
C1822       C  0.99199831  0.84238828  0.73513316     0.30000
F1823       F  0.51431640  0.83574822  0.71835440    -0.19400
H1824       H  0.49347697  0.88385624  0.72028875     0.18300
H1825       H  0.94393761  0.81485811  0.78239231     0.18300
F1826       F  0.92450400  0.86386122  0.78729983    -0.19400
C1827       C  0.75584107  0.76397028  0.98291043    -0.20900
C1828       C  0.73470057  0.76306595  0.00464000    -0.08900
C1829       C  0.73435669  0.74189792  0.52670425     0.29900
C1830       C  0.75477419  0.72199472  0.52677465    -0.20900
C1831       C  0.77591989  0.72300125  0.00504878    -0.08900
C1832       C  0.77623214  0.74416217  0.98302185     0.30000
F1833       F  0.79579733  0.74518446  0.96096646    -0.19400
H1834       H  0.75630756  0.77985078  0.96544278     0.18300
H1835       H  0.75426372  0.70593224  0.54402058     0.18300
F1836       F  0.71470136  0.74085358  0.54863671    -0.19400
C1837       C  0.92162566  0.69235000  0.01306714    -0.20900
C1838       C  0.92821808  0.71723159  0.99875770    -0.08900
C1839       C  0.90771371  0.73216342  0.48382755     0.29900
C1840       C  0.88110595  0.72240577  0.48349144    -0.20900
C1841       C  0.87412273  0.69794320  0.99875346    -0.08900
C1842       C  0.89484306  0.68291139  0.01349335     0.30000
F1843       F  0.88916119  0.65978185  0.02956008    -0.19400
H1844       H  0.93712769  0.68061241  0.02486838     0.18300
H1845       H  0.86588602  0.73416606  0.47128099     0.18300
F1846       F  0.91345633  0.75595826  0.46905931    -0.19400
C1847       C  0.77816189  0.61759237  0.98240393    -0.20900
C1848       C  0.80186018  0.62455330  0.49852060    -0.08900
C1849       C  0.81647013  0.60363896  0.51361932     0.29900
C1850       C  0.80714994  0.57666535  0.51296509    -0.20900
C1851       C  0.78289281  0.57008695  0.49785350    -0.08900
C1852       C  0.76859760  0.59081940  0.98230187     0.30000
F1853       F  0.74549150  0.58520909  0.96664726    -0.19400
H1854       H  0.76682010  0.63299833  0.96987581     0.18300
H1855       H  0.81847586  0.56102736  0.52516309     0.18300
F1856       F  0.83902534  0.60933580  0.53020826    -0.19400
loop_ 
_geom_bond_atom_site_label_1 
_geom_bond_atom_site_label_2 
_geom_bond_distance 
_geom_bond_site_symmetry_2 
_ccdc_geom_bond_type 
C1            C2   1.410   1_554  A
C1            C6   1.407       .  A
C1          C224   1.492   1_554  S
C2          C235   1.411   1_556  A
C2            H7   1.082       .  S
C3            C4   1.406       .  A
C3          C234   1.411       .  A
C3          C217   1.494       .  S
C4            C5   1.400       .  A
C4            H8   1.083       .  S
C5          C238   1.399       .  A
C5          C207   1.481       .  S
C6          C237   1.399       .  A
C6            H9   1.083       .  S
C10          C11   1.410       .  A
C10          C15   1.407       .  A
C10         C194   1.492       .  S
C11          C12   1.409       .  A
C11          H16   1.082       .  S
C12          C13   1.404       .  A
C12         C184   1.487       .  S
C13          C14   1.398       .  A
C13          H17   1.083       .  S
C14          C15   1.398       .  A
C14         C174   1.477       .  S
C15          H18   1.084       .  S
C19          C20   1.405       .  A
C19          C24   1.406       .  A
C19         C164   1.484       .  S
C20          C21   1.402       .  A
C20          H25   1.084       .  S
C21         C254   1.402       .  A
C21         C204   1.483       .  S
C22          C23   1.407   1_554  A
C22         C253   1.402       .  A
C22          H26   1.083       .  S
C23         C256   1.408       .  A
C23         C154   1.492       .  S
C24         C255   1.408       .  A
C24          H27   1.083       .  S
O28          V36   1.898       .  S
O28         C502   1.265       .  A
O29          V36   1.900       .  S
O29          C39   1.264       .  A
O30          V36   1.896       .  S
O30          C40   1.263       .  A
O31          V36   1.896       .  S
O31          C41   1.263       .  A
O32          V37   1.903       .  S
O32         C505   1.265   1_545  A
O33          V37   1.903       .  S
O33         C504   1.264   1_545  A
O34          V37   1.898       .  S
O34         C503   1.264   1_545  A
O35          V37   1.900       .  S
O35          C38   1.264       .  A
V36         V501   2.089       .  T
V37         V500   2.089   1_545  T
C38         C124   1.476       .  S
C38         O492   1.265   1_545  A
C39         C187   1.472       .  S
C39         O498   1.264       .  A
C40         C147   1.468       .  S
C40         O497   1.264       .  A
C41         C134   1.473       .  S
C41         O496   1.265       .  A
O42         V514   1.904   1_554  S
O42          C52   1.265   1_554  A
O43         V282   1.899       .  S
O43         C285   1.265       .  A
O44         V282   1.900   1_565  S
O44         C518   1.265       .  A
O45          V50   1.902   1_554  S
O45         C519   1.265   1_545  A
O46          V51   1.900   1_554  S
O46          C55   1.265       .  A
O47         V283   1.899       .  S
O47          C54   1.264       .  A
O48         V515   1.903   1_544  S
O48          C53   1.265   1_554  A
O49         V283   1.900       .  S
O49         C284   1.265       .  A
V50         O506   1.904   1_546  S
V50         O275   1.899       .  S
V50         O276   1.900   1_545  S
V50         V515   2.081   1_545  T
V51         O279   1.899       .  S
V51         O512   1.903   1_556  S
V51         O281   1.900       .  S
V51         V514   2.081       .  T
C52         C157   1.479       .  S
C52         O281   1.265       .  A
C53         C227   1.479       .  S
C53         O275   1.265       .  A
C54         C144   1.477       .  S
C54         O508   1.265       .  A
C55         C137   1.474       .  S
C55         O509   1.265       .  A
C56          C57   1.403       .  A
C56          C61   1.407       .  A
C56         C117   1.486       .  S
C57          C58   1.399       .  A
C57          H62   1.084       .  S
C58          C59   1.401       .  A
C58         C177   1.481       .  S
C59          C60   1.407       .  A
C59          H63   1.082       .  S
C60          C61   1.410       .  A
C60         C127   1.492       .  S
C61          H64   1.083       .  S
O65          V73   1.900       .  S
O65        C1003   1.265       .  A
O66          V73   1.893       .  S
O66        C1004   1.263       .  A
O67          V73   1.903       .  S
O67          C77   1.264       .  A
O68          V73   1.900       .  S
O68        C1006   1.265       .  A
O69          V74   1.898       .  S
O69          C78   1.263       .  A
O70          V74   1.895       .  S
O70        C1005   1.264   1_455  A
O71          V74   1.906       .  S
O71          C76   1.266       .  A
O72          V74   1.901       .  S
O72          C75   1.265       .  A
V73        V1002   2.086       .  T
V74        V1001   2.086   1_455  T
C75          C94   1.481       .  S
C75         O993   1.265   1_455  A
C76         C107   1.476       .  S
C76         O994   1.263   1_455  A
C77         C197   1.473       .  S
C77         O998   1.264       .  A
C78         C114   1.474       .  S
C78         O996   1.265   1_455  A
O79         V319   1.903       .  S
O79         C321   1.266   1_554  A
O80        V1015   1.903   1_455  S
O80          C90   1.265       .  A
O81          V87   1.894       .  S
O81        C1019   1.263       .  A
O82         V319   1.902       .  S
O82        C1020   1.264       .  A
O83         V320   1.899       .  S
O83          C92   1.264       .  A
O84          V88   1.906       .  S
O84          C91   1.265       .  A
O85         V320   1.899       .  S
O85         C322   1.264       .  A
O86        V1016   1.900       .  S
O86          C89   1.264       .  A
V87         O311   1.903       .  S
V87        O1008   1.903       .  S
V87         O314   1.902       .  S
V87        V1016   2.085       .  T
V88         O315   1.899       .  S
V88         O317   1.899       .  S
V88        O1014   1.900   1_455  S
V88        V1015   2.085   1_455  T
C89         C214   1.478       .  S
C89         O311   1.266       .  A
C90         C167   1.472       .  S
C90         O317   1.264       .  A
C91         C104   1.470       .  S
C91        O1009   1.263   1_455  A
C92          C97   1.469       .  S
C92        O1010   1.264   1_455  A
C93          C94   1.406       .  A
C93          C98   1.399       .  A
C93         H100   1.083       .  S
C94        C1023   1.409   1_455  A
C95          C96   1.399       .  A
C95        C1022   1.409       .  A
C95         F102   1.357       .  S
C96        C1025   1.401       .  A
C96         H101   1.084       .  S
C97          C98   1.403       .  A
C97        C1024   1.401   1_455  A
C98          F99   1.358       .  S
C103        C104   1.403       .  A
C103        C108   1.402       .  A
C103        H110   1.083       .  S
C104       C1033   1.403   1_455  A
C105        C106   1.395       .  A
C105       C1032   1.403       .  A
C105        F112   1.358       .  S
C106       C1035   1.404       .  A
C106        H111   1.083       .  S
C107        C108   1.408       .  A
C107       C1034   1.404   1_455  A
C108        F109   1.357       .  S
C113        C114   1.401       .  A
C113        C118   1.395       .  A
C113        H120   1.083       .  S
C114        C115   1.407       .  A
C115        C116   1.400       .  A
C115        F122   1.357       .  S
C116        C117   1.406       .  A
C116        H121   1.083       .  S
C117        C118   1.409       .  A
C118        F119   1.358       .  S
C123        C124   1.401       .  A
C123        C128   1.396       .  A
C123        H594   1.084   1_545  S
C124        C125   1.406       .  A
C125        C126   1.400       .  A
C125        F132   1.357       .  S
C126        C127   1.408       .  A
C126        H131   1.083       .  S
C127        C128   1.412       .  A
C128        F593   1.357       .  S
F129        C592   1.357       .  S
H130        C587   1.084       .  S
C133        C138   1.400       .  A
C133        C598   1.403   1_545  A
C133        H140   1.083       .  S
C134        C135   1.405       .  A
C134        C597   1.403       .  A
C135        C136   1.398       .  A
C135        F142   1.358       .  S
C136        C137   1.403       .  A
C136        H141   1.083       .  S
C137        C602   1.407       .  A
C138        C601   1.407   1_545  A
C138        F139   1.358       .  S
C143        C144   1.405       .  A
C143        C148   1.398       .  A
C143        H150   1.083       .  S
C144        C145   1.409       .  A
C145        C146   1.399       .  A
C145        F152   1.358       .  S
C146        C147   1.401       .  A
C146        H151   1.083       .  S
C147        C148   1.403       .  A
C148        F149   1.358       .  S
C153        C158   1.401       .  A
C153        C386   1.408       .  A
C153        H160   1.082       .  S
C154        C155   1.411       .  A
C154        C385   1.408   1_556  A
C155        C156   1.397       .  A
C155        F162   1.358       .  S
C156        C157   1.403       .  A
C156        H161   1.083       .  S
C157        C390   1.406   1_556  A
C158        C389   1.406       .  A
C158        F159   1.357       .  S
C163        C164   1.406       .  A
C163        C168   1.399       .  A
C163        H170   1.083       .  S
C164        C397   1.408       .  A
C165        C166   1.398       .  A
C165        C396   1.408       .  A
C165        F172   1.358       .  S
C166        C399   1.402       .  A
C166        H171   1.083       .  S
C167        C168   1.404       .  A
C167        C398   1.402       .  A
C168        F169   1.357       .  S
C173        C178   1.398       .  A
C173       C1102   1.404   1_455  A
C173        H180   1.083       .  S
C174       C1101   1.404       .  A
C174        C639   1.404       .  A
C175        C176   1.395   1_565  A
C175        C638   1.404       .  A
C175        F182   1.358       .  S
C176       C1105   1.405       .  A
C176        H181   1.083       .  S
C177       C1104   1.405       .  A
C177        C642   1.407   1_545  A
C178        C641   1.407       .  A
C178        F179   1.357       .  S
C183        C184   1.407       .  A
C183        C188   1.400       .  A
C183        H190   1.083       .  S
C184        C185   1.411       .  A
C185        C186   1.396       .  A
C185        F192   1.358       .  S
C186        C187   1.401       .  A
C186        H655   1.084       .  S
C187        C188   1.405       .  A
C188        F189   1.357       .  S
H191        C650   1.084       .  S
C193        C194   1.408       .  A
C193        C198   1.393       .  A
C193       H1128   1.083       .  S
C194        C195   1.412       .  A
C195        C196   1.402       .  A
C195        F202   1.357       .  S
C196        C197   1.404       .  A
C196        H201   1.083       .  S
C197        C198   1.402       .  A
C198       F1127   1.358       .  S
F199       C1126   1.358   1_455  S
H200       C1121   1.083       .  S
C203        C204   1.404       .  A
C203        C208   1.396       .  A
C203        H210   1.084       .  S
C204        C437   1.408       .  A
C205        C206   1.400       .  A
C205        C436   1.408       .  A
C205        F212   1.357       .  S
C206        C439   1.404       .  A
C206        H211   1.083       .  S
C207        C208   1.406       .  A
C207        C438   1.404       .  A
C208        F209   1.358       .  S
C213        C214   1.404       .  A
C213        C218   1.400       .  A
C213        H220   1.083       .  S
C214        C447   1.404       .  A
C215        C216   1.398       .  A
C215        C446   1.404       .  A
C215        F222   1.358       .  S
C216        C449   1.409       .  A
C216        H221   1.083       .  S
C217        C218   1.411       .  A
C217        C448   1.409       .  A
C218        F219   1.357       .  S
C223        C228   1.396       .  A
C223        C456   1.407       .  A
C223        H230   1.083       .  S
C224        C225   1.411   1_556  A
C224        C455   1.407       .  A
C225        C226   1.402       .  A
C225        F232   1.357       .  S
C226        C227   1.405   1_554  A
C226        H231   1.084       .  S
C227        C460   1.406       .  A
C228        C459   1.406       .  A
C228        F229   1.358       .  S
C233        C234   1.410       .  A
C233        C238   1.407       .  A
C233        C456   1.492       .  S
C234        H239   1.082       .  S
C235        C236   1.406       .  A
C235        C449   1.494   1_554  S
C236        C237   1.400       .  A
C236        H240   1.083       .  S
C237        C439   1.481       .  S
C238        H241   1.083       .  S
C242        C243   1.410       .  A
C242        C247   1.407       .  A
C242        C426   1.492       .  S
C243        C244   1.409       .  A
C243        H248   1.082       .  S
C244        C245   1.404       .  A
C244        C416   1.487       .  S
C245        C246   1.398       .  A
C245        H249   1.083       .  S
C246        C247   1.398       .  A
C246        C406   1.477       .  S
C247        H250   1.084       .  S
C251        C252   1.405       .  A
C251        C256   1.406   1_554  A
C251        C396   1.484       .  S
C252        C253   1.402       .  A
C252        H257   1.084       .  S
C253        C436   1.483       .  S
C254        C255   1.407       .  A
C254        H258   1.083       .  S
C255        C386   1.492       .  S
C256        H259   1.083       .  S
O260        V268   1.898       .  S
O260        C734   1.265       .  A
O261        V268   1.900       .  S
O261        C271   1.264       .  A
O262        V268   1.896       .  S
O262        C272   1.263       .  A
O263        V268   1.896       .  S
O263        C273   1.263       .  A
O264        V269   1.903       .  S
O264        C737   1.265   1_545  A
O265        V269   1.903       .  S
O265        C736   1.264   1_545  A
O266        V269   1.898       .  S
O266        C735   1.264   1_545  A
O267        V269   1.900       .  S
O267        C270   1.264       .  A
V268        V733   2.089       .  T
V269        V732   2.089   1_545  T
C270        C356   1.476       .  S
C270        O724   1.265   1_545  A
C271        C419   1.472       .  S
C271        O730   1.264       .  A
C272        C379   1.468       .  S
C272        O729   1.264       .  A
C273        C366   1.473       .  S
C273        O728   1.265       .  A
O274        V746   1.904       .  S
O274        C284   1.265       .  A
O276        C750   1.265       .  A
O277        V282   1.902       .  S
O277        C751   1.265   1_545  A
O278        V283   1.900       .  S
O278        C287   1.265       .  A
O279        C286   1.264       .  A
O280        V747   1.903   1_545  S
O280        C285   1.265       .  A
V282        O738   1.904   1_545  S
V282        V747   2.081   1_545  T
V283        O744   1.903       .  S
V283        V746   2.081       .  T
C284        C389   1.479       .  S
C285        C459   1.479       .  S
C286        C376   1.477       .  S
C286        O740   1.265       .  A
C287        C369   1.474       .  S
C287        O741   1.265       .  A
C288        C289   1.403       .  A
C288        C293   1.407       .  A
C288        C349   1.486       .  S
C289        C290   1.399       .  A
C289        H294   1.084       .  S
C290        C291   1.401       .  A
C290        C409   1.481       .  S
C291        C292   1.407       .  A
C291        H295   1.082       .  S
C292        C293   1.410       .  A
C292        C359   1.492       .  S
C293        H296   1.083       .  S
O297        V305   1.900       .  S
O297       C1235   1.265       .  A
O298        V305   1.893       .  S
O298       C1236   1.263       .  A
O299        V305   1.903       .  S
O299        C309   1.264       .  A
O300        V305   1.900       .  S
O300       C1238   1.265       .  A
O301        V306   1.898       .  S
O301        C310   1.263       .  A
O302        V306   1.895       .  S
O302       C1237   1.264   1_455  A
O303        V306   1.906       .  S
O303        C308   1.266       .  A
O304        V306   1.901       .  S
O304        C307   1.265       .  A
V305       V1234   2.086       .  T
V306       V1233   2.086   1_455  T
C307        C326   1.481       .  S
C307       O1225   1.265   1_455  A
C308        C339   1.476       .  S
C308       O1226   1.263   1_455  A
C309        C429   1.473       .  S
C309       O1230   1.264       .  A
C310        C346   1.474       .  S
C310       O1228   1.265   1_455  A
O312       V1247   1.903   1_456  S
O312        C322   1.265   1_556  A
O313        V319   1.894   1_556  S
O313       C1251   1.263       .  A
O314       C1252   1.264       .  A
O315        C324   1.264       .  A
O316        V320   1.906   1_556  S
O316        C323   1.265       .  A
O318       V1248   1.900   1_556  S
O318        C321   1.264       .  A
V319       O1240   1.903   1_554  S
V319       V1248   2.085       .  T
V320       O1246   1.900   1_454  S
V320       V1247   2.085   1_455  T
C321        C446   1.478       .  S
C322        C399   1.472       .  S
C323        C336   1.470       .  S
C323       O1241   1.263   1_455  A
C324        C329   1.469       .  S
C324       O1242   1.264   1_455  A
C325        C326   1.406       .  A
C325        C330   1.399       .  A
C325        H332   1.083       .  S
C326       C1255   1.409   1_455  A
C327       C1254   1.409       .  A
C327        C328   1.399       .  A
C327        F334   1.357       .  S
C328       C1257   1.401       .  A
C328        H333   1.084       .  S
C329       C1256   1.401   1_455  A
C329        C330   1.403       .  A
C330        F331   1.358       .  S
C335        C336   1.403       .  A
C335        C340   1.402       .  A
C335        H342   1.083       .  S
C336       C1265   1.403   1_455  A
C337       C1264   1.403       .  A
C337        C338   1.395       .  A
C337        F344   1.358       .  S
C338       C1267   1.404       .  A
C338        H343   1.083       .  S
C339       C1266   1.404   1_455  A
C339        C340   1.408       .  A
C340        F341   1.357       .  S
C345        C346   1.401       .  A
C345        C350   1.395       .  A
C345        H352   1.083       .  S
C346        C347   1.407       .  A
C347        C348   1.400       .  A
C347        F354   1.357       .  S
C348        C349   1.406       .  A
C348        H353   1.083       .  S
C349        C350   1.409       .  A
C350        F351   1.358       .  S
C355        C356   1.401       .  A
C355        C360   1.396       .  A
C355        H826   1.084   1_545  S
C356        C357   1.406       .  A
C357        C358   1.400       .  A
C357        F364   1.357       .  S
C358        C359   1.408       .  A
C358        H363   1.083       .  S
C359        C360   1.412       .  A
C360        F825   1.357       .  S
F361        C824   1.357       .  S
H362        C819   1.084       .  S
C365        C830   1.403   1_545  A
C365        C370   1.400       .  A
C365        H372   1.083       .  S
C366        C829   1.403       .  A
C366        C367   1.405       .  A
C367        C368   1.398       .  A
C367        F374   1.358       .  S
C368        C369   1.403       .  A
C368        H373   1.083       .  S
C369        C834   1.407       .  A
C370        C833   1.407   1_545  A
C370        F371   1.358       .  S
C375        C376   1.405       .  A
C375        C380   1.398       .  A
C375        H382   1.083       .  S
C376        C377   1.409       .  A
C377        C378   1.399       .  A
C377        F384   1.358       .  S
C378        C379   1.401       .  A
C378        H383   1.083       .  S
C379        C380   1.403       .  A
C380        F381   1.358       .  S
C385        C390   1.401       .  A
C385        H392   1.082       .  S
C386        C387   1.411       .  A
C387        C388   1.397       .  A
C387        F394   1.358       .  S
C388        C389   1.403       .  A
C388        H393   1.083       .  S
C390        F391   1.357       .  S
C395        C396   1.406   1_556  A
C395        C400   1.399       .  A
C395        H402   1.083       .  S
C397        C398   1.398       .  A
C397        F404   1.358       .  S
C398        H403   1.083       .  S
C399        C400   1.404   1_554  A
C400        F401   1.357       .  S
C405       C1334   1.404   1_455  A
C405        C410   1.398       .  A
C405        H412   1.083       .  S
C406       C1333   1.404       .  A
C406        C871   1.404       .  A
C407        C870   1.404       .  A
C407        C408   1.395   1_565  A
C407        F414   1.358       .  S
C408       C1337   1.405       .  A
C408        H413   1.083       .  S
C409       C1336   1.405       .  A
C409        C874   1.407   1_545  A
C410        C873   1.407       .  A
C410        F411   1.357       .  S
C415        C416   1.407       .  A
C415        C420   1.400       .  A
C415        H422   1.083       .  S
C416        C417   1.411       .  A
C417        C418   1.396       .  A
C417        F424   1.358       .  S
C418        C419   1.401       .  A
C418        H887   1.084       .  S
C419        C420   1.405       .  A
C420        F421   1.357       .  S
H423        C882   1.084       .  S
C425        C426   1.408       .  A
C425        C430   1.393       .  A
C425       H1360   1.083       .  S
C426        C427   1.412       .  A
C427        C428   1.402       .  A
C427        F434   1.357       .  S
C428        C429   1.404       .  A
C428        H433   1.083       .  S
C429        C430   1.402       .  A
C430       F1359   1.358       .  S
F431       C1358   1.358   1_455  S
H432       C1353   1.083       .  S
C435        C436   1.404   1_556  A
C435        C440   1.396       .  A
C435        H442   1.084       .  S
C437        C438   1.400       .  A
C437        F444   1.357       .  S
C438        H443   1.083       .  S
C439        C440   1.406   1_554  A
C440        F441   1.358       .  S
C445        C446   1.404   1_554  A
C445        C450   1.400       .  A
C445        H452   1.083       .  S
C447        C448   1.398       .  A
C447        F454   1.358       .  S
C448        H453   1.083       .  S
C449        C450   1.411   1_556  A
C450        F451   1.357       .  S
C455        C460   1.396       .  A
C455        H462   1.083       .  S
C456        C457   1.411       .  A
C457        C458   1.402       .  A
C457        F464   1.357       .  S
C458        C459   1.405       .  A
C458        H463   1.084       .  S
C460        F461   1.358       .  S
C465        C466   1.410   1_554  A
C465        C470   1.407       .  A
C465        C688   1.492   1_554  S
C466        C699   1.411   1_556  A
C466        H471   1.082       .  S
C467        C698   1.411       .  A
C467        C468   1.406       .  A
C467        C681   1.494       .  S
C468        C469   1.400       .  A
C468        H472   1.083       .  S
C469        C702   1.399       .  A
C469        C671   1.481       .  S
C470        C701   1.399       .  A
C470        H473   1.083       .  S
C474        C475   1.410       .  A
C474        C479   1.407       .  A
C474        C658   1.492       .  S
C475        C476   1.409       .  A
C475        H480   1.082       .  S
C476        C477   1.404       .  A
C476        C648   1.487       .  S
C477        C478   1.398       .  A
C477        H481   1.083       .  S
C478        C479   1.398       .  A
C478        C638   1.477       .  S
C479        H482   1.084       .  S
C483        C484   1.405       .  A
C483        C488   1.406       .  A
C483        C628   1.484       .  S
C484        C485   1.402       .  A
C484        H489   1.084       .  S
C485        C718   1.402       .  A
C485        C668   1.483       .  S
C486        C717   1.402       .  A
C486        C487   1.407   1_554  A
C486        H490   1.083       .  S
C487        C720   1.408       .  A
C487        C618   1.492       .  S
C488        C719   1.408       .  A
C488        H491   1.083       .  S
O492        V500   1.898       .  S
O493        V500   1.900       .  S
O493        C503   1.264       .  A
O494        V500   1.896       .  S
O494        C504   1.263       .  A
O495        V500   1.896       .  S
O495        C505   1.263       .  A
O496        V501   1.903       .  S
O497        V501   1.903       .  S
O498        V501   1.898       .  S
O499        V501   1.900       .  S
O499        C502   1.264       .  A
C502        C588   1.476       .  S
C503        C651   1.472       .  S
C504        C611   1.468       .  S
C505        C598   1.473       .  S
O506        C516   1.265   1_554  A
O507        V746   1.899       .  S
O507        C749   1.265       .  A
O508        V746   1.900       .  S
O509        V514   1.902   1_554  S
O510        V515   1.900   1_554  S
O510        C519   1.265       .  A
O511        V747   1.899       .  S
O511        C518   1.264       .  A
O512        C517   1.265   1_554  A
O513        V747   1.900       .  S
O513        C748   1.265       .  A
V514        O739   1.899       .  S
V514        O740   1.900       .  S
V515        O743   1.899       .  S
V515        O745   1.900       .  S
C516        C621   1.479       .  S
C516        O745   1.265       .  A
C517        C691   1.479       .  S
C517        O739   1.265       .  A
C518        C608   1.477       .  S
C519        C601   1.474       .  S
C520        C521   1.403       .  A
C520        C525   1.407       .  A
C520        C581   1.486       .  S
C521        C522   1.399       .  A
C521        H526   1.084       .  S
C522        C523   1.401       .  A
C522        C641   1.481       .  S
C523        C524   1.407       .  A
C523        H527   1.082       .  S
C524        C525   1.410       .  A
C524        C591   1.492       .  S
C525        H528   1.083       .  S
O529        V537   1.900       .  S
O529       C1467   1.265       .  A
O530        V537   1.893       .  S
O530       C1468   1.263       .  A
O531        V537   1.903       .  S
O531        C541   1.264       .  A
O532        V537   1.900       .  S
O532       C1470   1.265       .  A
O533        V538   1.898       .  S
O533        C542   1.263       .  A
O534        V538   1.895       .  S
O534       C1469   1.264   1_455  A
O535        V538   1.906       .  S
O535        C540   1.266       .  A
O536        V538   1.901       .  S
O536        C539   1.265       .  A
V537       V1466   2.086       .  T
V538       V1465   2.086   1_455  T
C539        C558   1.481       .  S
C539       O1457   1.265   1_455  A
C540        C571   1.476       .  S
C540       O1458   1.263   1_455  A
C541        C661   1.473       .  S
C541       O1462   1.264       .  A
C542        C578   1.474       .  S
C542       O1460   1.265   1_455  A
O543        V783   1.903       .  S
O543        C785   1.266   1_554  A
O544       V1479   1.903   1_455  S
O544        C554   1.265       .  A
O545        V551   1.894       .  S
O545       C1483   1.263       .  A
O546        V783   1.902       .  S
O546       C1484   1.264       .  A
O547        V784   1.899       .  S
O547        C556   1.264       .  A
O548        V552   1.906       .  S
O548        C555   1.265       .  A
O549        V784   1.899       .  S
O549        C786   1.264       .  A
O550       V1480   1.900       .  S
O550        C553   1.264       .  A
V551        O775   1.903       .  S
V551       O1472   1.903       .  S
V551        O778   1.902       .  S
V551       V1480   2.085       .  T
V552        O779   1.899       .  S
V552        O781   1.899       .  S
V552       O1478   1.900   1_455  S
V552       V1479   2.085   1_455  T
C553        C678   1.478       .  S
C553        O775   1.266       .  A
C554        C631   1.472       .  S
C554        O781   1.264       .  A
C555        C568   1.470       .  S
C555       O1473   1.263   1_455  A
C556        C561   1.469       .  S
C556       O1474   1.264   1_455  A
C557        C558   1.406       .  A
C557        C562   1.399       .  A
C557        H564   1.083       .  S
C558       C1487   1.409   1_455  A
C559       C1486   1.409       .  A
C559        C560   1.399       .  A
C559        F566   1.357       .  S
C560       C1489   1.401       .  A
C560        H565   1.084       .  S
C561       C1488   1.401   1_455  A
C561        C562   1.403       .  A
C562        F563   1.358       .  S
C567        C568   1.403       .  A
C567        C572   1.402       .  A
C567        H574   1.083       .  S
C568       C1497   1.403   1_455  A
C569       C1496   1.403       .  A
C569        C570   1.395       .  A
C569        F576   1.358       .  S
C570       C1499   1.404       .  A
C570        H575   1.083       .  S
C571       C1498   1.404   1_455  A
C571        C572   1.408       .  A
C572        F573   1.357       .  S
C577        C578   1.401       .  A
C577        C582   1.395       .  A
C577        H584   1.083       .  S
C578        C579   1.407       .  A
C579        C580   1.400       .  A
C579        F586   1.357       .  S
C580        C581   1.406       .  A
C580        H585   1.083       .  S
C581        C582   1.409       .  A
C582        F583   1.358       .  S
C587        C588   1.401       .  A
C587        C592   1.396       .  A
C588        C589   1.406       .  A
C589        C590   1.400       .  A
C589        F596   1.357       .  S
C590        C591   1.408       .  A
C590        H595   1.083       .  S
C591        C592   1.412       .  A
C597        C602   1.400       .  A
C597        H604   1.083       .  S
C598        C599   1.405       .  A
C599        C600   1.398       .  A
C599        F606   1.358       .  S
C600        C601   1.403       .  A
C600        H605   1.083       .  S
C602        F603   1.358       .  S
C607        C608   1.405       .  A
C607        C612   1.398       .  A
C607        H614   1.083       .  S
C608        C609   1.409   1_565  A
C609        C610   1.399       .  A
C609        F616   1.358       .  S
C610        C611   1.401   1_545  A
C610        H615   1.083       .  S
C611        C612   1.403       .  A
C612        F613   1.358       .  S
C617        C850   1.408       .  A
C617        C622   1.401       .  A
C617        H624   1.082       .  S
C618        C849   1.408   1_556  A
C618        C619   1.411       .  A
C619        C620   1.397       .  A
C619        F626   1.358       .  S
C620        C621   1.403       .  A
C620        H625   1.083       .  S
C621        C854   1.406   1_556  A
C622        C853   1.406       .  A
C622        F623   1.357       .  S
C627        C628   1.406       .  A
C627        C632   1.399       .  A
C627        H634   1.083       .  S
C628        C861   1.408       .  A
C629        C860   1.408       .  A
C629        C630   1.398       .  A
C629        F636   1.358       .  S
C630        C863   1.402       .  A
C630        H635   1.083       .  S
C631        C862   1.402       .  A
C631        C632   1.404       .  A
C632        F633   1.357       .  S
C637       C1566   1.404   1_455  A
C637        C642   1.398       .  A
C637        H644   1.083       .  S
C638       C1565   1.404       .  A
C639        C640   1.395       .  A
C639        F646   1.358       .  S
C640       C1569   1.405       .  A
C640        H645   1.083       .  S
C641       C1568   1.405       .  A
C642        F643   1.357       .  S
C647        C648   1.407       .  A
C647        C652   1.400       .  A
C647        H654   1.083       .  S
C648        C649   1.411       .  A
C649        C650   1.396       .  A
C649        F656   1.358       .  S
C650        C651   1.401       .  A
C651        C652   1.405       .  A
C652        F653   1.357       .  S
C657        C658   1.408       .  A
C657        C662   1.393       .  A
C657       H1592   1.083       .  S
C658        C659   1.412       .  A
C659        C660   1.402       .  A
C659        F666   1.357       .  S
C660        C661   1.404       .  A
C660        H665   1.083       .  S
C661        C662   1.402       .  A
C662       F1591   1.358       .  S
F663       C1590   1.358   1_455  S
H664       C1585   1.083       .  S
C667        C668   1.404       .  A
C667        C672   1.396       .  A
C667        H674   1.084       .  S
C668        C901   1.408       .  A
C669        C900   1.408       .  A
C669        C670   1.400       .  A
C669        F676   1.357       .  S
C670        C903   1.404       .  A
C670        H675   1.083       .  S
C671        C902   1.404       .  A
C671        C672   1.406       .  A
C672        F673   1.358       .  S
C677        C678   1.404       .  A
C677        C682   1.400       .  A
C677        H684   1.083       .  S
C678        C911   1.404       .  A
C679        C910   1.404       .  A
C679        C680   1.398       .  A
C679        F686   1.358       .  S
C680        C913   1.409       .  A
C680        H685   1.083       .  S
C681        C912   1.409       .  A
C681        C682   1.411       .  A
C682        F683   1.357       .  S
C687        C920   1.407       .  A
C687        C692   1.396       .  A
C687        H694   1.083       .  S
C688        C919   1.407       .  A
C688        C689   1.411   1_556  A
C689        C690   1.402       .  A
C689        F696   1.357       .  S
C690        C691   1.405   1_554  A
C690        H695   1.084       .  S
C691        C924   1.406       .  A
C692        C923   1.406       .  A
C692        F693   1.358       .  S
C697        C698   1.410       .  A
C697        C702   1.407       .  A
C697        C920   1.492       .  S
C698        H703   1.082       .  S
C699        C700   1.406       .  A
C699        C913   1.494   1_554  S
C700        C701   1.400       .  A
C700        H704   1.083       .  S
C701        C903   1.481       .  S
C702        H705   1.083       .  S
C706        C707   1.410       .  A
C706        C711   1.407       .  A
C706        C890   1.492       .  S
C707        C708   1.409       .  A
C707        H712   1.082       .  S
C708        C709   1.404       .  A
C708        C880   1.487       .  S
C709        C710   1.398       .  A
C709        H713   1.083       .  S
C710        C711   1.398       .  A
C710        C870   1.477       .  S
C711        H714   1.084       .  S
C715        C716   1.405       .  A
C715        C720   1.406   1_554  A
C715        C860   1.484       .  S
C716        C717   1.402       .  A
C716        H721   1.084       .  S
C717        C900   1.483       .  S
C718        C719   1.407       .  A
C718        H722   1.083       .  S
C719        C850   1.492       .  S
C720        H723   1.083       .  S
O724        V732   1.898       .  S
O725        V732   1.900       .  S
O725        C735   1.264       .  A
O726        V732   1.896       .  S
O726        C736   1.263       .  A
O727        V732   1.896       .  S
O727        C737   1.263       .  A
O728        V733   1.903       .  S
O729        V733   1.903       .  S
O730        V733   1.898       .  S
O731        V733   1.900       .  S
O731        C734   1.264       .  A
C734        C820   1.476       .  S
C735        C883   1.472       .  S
C736        C843   1.468       .  S
C737        C830   1.473       .  S
O738        C748   1.265       .  A
O741        V746   1.902       .  S
O742        V747   1.900       .  S
O742        C751   1.265       .  A
O743        C750   1.264       .  A
O744        C749   1.265       .  A
C748        C853   1.479       .  S
C749        C923   1.479       .  S
C750        C840   1.477       .  S
C751        C833   1.474       .  S
C752        C753   1.403       .  A
C752        C757   1.407       .  A
C752        C813   1.486       .  S
C753        C754   1.399       .  A
C753        H758   1.084       .  S
C754        C755   1.401       .  A
C754        C873   1.481       .  S
C755        C756   1.407       .  A
C755        H759   1.082       .  S
C756        C757   1.410       .  A
C756        C823   1.492       .  S
C757        H760   1.083       .  S
O761        V769   1.900       .  S
O761       C1699   1.265       .  A
O762        V769   1.893       .  S
O762       C1700   1.263       .  A
O763        V769   1.903       .  S
O763        C773   1.264       .  A
O764        V769   1.900       .  S
O764       C1702   1.265       .  A
O765        V770   1.898       .  S
O765        C774   1.263       .  A
O766        V770   1.895       .  S
O766       C1701   1.264   1_455  A
O767        V770   1.906       .  S
O767        C772   1.266       .  A
O768        V770   1.901       .  S
O768        C771   1.265       .  A
V769       V1698   2.086       .  T
V770       V1697   2.086   1_455  T
C771        C790   1.481       .  S
C771       O1689   1.265   1_455  A
C772        C803   1.476       .  S
C772       O1690   1.263   1_455  A
C773        C893   1.473       .  S
C773       O1694   1.264       .  A
C774        C810   1.474       .  S
C774       O1692   1.265   1_455  A
O776       V1711   1.903   1_456  S
O776        C786   1.265   1_556  A
O777        V783   1.894   1_556  S
O777       C1715   1.263       .  A
O778       C1716   1.264       .  A
O779        C788   1.264       .  A
O780        V784   1.906   1_556  S
O780        C787   1.265       .  A
O782       V1712   1.900   1_556  S
O782        C785   1.264       .  A
V783       O1704   1.903   1_554  S
V783       V1712   2.085       .  T
V784       O1710   1.900   1_454  S
V784       V1711   2.085   1_455  T
C785        C910   1.478       .  S
C786        C863   1.472       .  S
C787        C800   1.470       .  S
C787       O1705   1.263   1_455  A
C788        C793   1.469       .  S
C788       O1706   1.264   1_455  A
C789        C790   1.406       .  A
C789        C794   1.399       .  A
C789        H796   1.083       .  S
C790       C1719   1.409   1_455  A
C791       C1718   1.409       .  A
C791        C792   1.399       .  A
C791        F798   1.357       .  S
C792       C1721   1.401       .  A
C792        H797   1.084       .  S
C793       C1720   1.401   1_455  A
C793        C794   1.403       .  A
C794        F795   1.358       .  S
C799        C800   1.403       .  A
C799        C804   1.402       .  A
C799        H806   1.083       .  S
C800       C1729   1.403   1_455  A
C801       C1728   1.403       .  A
C801        C802   1.395       .  A
C801        F808   1.358       .  S
C802       C1731   1.404       .  A
C802        H807   1.083       .  S
C803       C1730   1.404   1_455  A
C803        C804   1.408       .  A
C804        F805   1.357       .  S
C809        C810   1.401       .  A
C809        C814   1.395       .  A
C809        H816   1.083       .  S
C810        C811   1.407       .  A
C811        C812   1.400       .  A
C811        F818   1.357       .  S
C812        C813   1.406       .  A
C812        H817   1.083       .  S
C813        C814   1.409       .  A
C814        F815   1.358       .  S
C819        C820   1.401       .  A
C819        C824   1.396       .  A
C820        C821   1.406       .  A
C821        C822   1.400       .  A
C821        F828   1.357       .  S
C822        C823   1.408       .  A
C822        H827   1.083       .  S
C823        C824   1.412       .  A
C829        C834   1.400       .  A
C829        H836   1.083       .  S
C830        C831   1.405       .  A
C831        C832   1.398       .  A
C831        F838   1.358       .  S
C832        C833   1.403       .  A
C832        H837   1.083       .  S
C834        F835   1.358       .  S
C839        C840   1.405       .  A
C839        C844   1.398       .  A
C839        H846   1.083       .  S
C840        C841   1.409   1_565  A
C841        C842   1.399       .  A
C841        F848   1.358       .  S
C842        C843   1.401   1_545  A
C842        H847   1.083       .  S
C843        C844   1.403       .  A
C844        F845   1.358       .  S
C849        C854   1.401       .  A
C849        H856   1.082       .  S
C850        C851   1.411       .  A
C851        C852   1.397       .  A
C851        F858   1.358       .  S
C852        C853   1.403       .  A
C852        H857   1.083       .  S
C854        F855   1.357       .  S
C859        C860   1.406   1_556  A
C859        C864   1.399       .  A
C859        H866   1.083       .  S
C861        C862   1.398       .  A
C861        F868   1.358       .  S
C862        H867   1.083       .  S
C863        C864   1.404   1_554  A
C864        F865   1.357       .  S
C869       C1798   1.404   1_455  A
C869        C874   1.398       .  A
C869        H876   1.083       .  S
C870       C1797   1.404       .  A
C871        C872   1.395       .  A
C871        F878   1.358       .  S
C872       C1801   1.405       .  A
C872        H877   1.083       .  S
C873       C1800   1.405       .  A
C874        F875   1.357       .  S
C879        C880   1.407       .  A
C879        C884   1.400       .  A
C879        H886   1.083       .  S
C880        C881   1.411       .  A
C881        C882   1.396       .  A
C881        F888   1.358       .  S
C882        C883   1.401       .  A
C883        C884   1.405       .  A
C884        F885   1.357       .  S
C889        C890   1.408       .  A
C889        C894   1.393       .  A
C889       H1824   1.083       .  S
C890        C891   1.412       .  A
C891        C892   1.402       .  A
C891        F898   1.357       .  S
C892        C893   1.404       .  A
C892        H897   1.083       .  S
C893        C894   1.402       .  A
C894       F1823   1.358       .  S
F895       C1822   1.358   1_455  S
H896       C1817   1.083       .  S
C899        C900   1.404   1_556  A
C899        C904   1.396       .  A
C899        H906   1.084       .  S
C901        C902   1.400       .  A
C901        F908   1.357       .  S
C902        H907   1.083       .  S
C903        C904   1.406   1_554  A
C904        F905   1.358       .  S
C909        C910   1.404   1_554  A
C909        C914   1.400       .  A
C909        H916   1.083       .  S
C911        C912   1.398       .  A
C911        F918   1.358       .  S
C912        H917   1.083       .  S
C913        C914   1.411   1_556  A
C914        F915   1.357       .  S
C919        C924   1.396       .  A
C919        H926   1.083       .  S
C920        C921   1.411       .  A
C921        C922   1.402       .  A
C921        F928   1.357       .  S
C922        C923   1.405       .  A
C922        H927   1.084       .  S
C924        F925   1.358       .  S
C929        C930   1.410   1_554  A
C929        C934   1.407       .  A
C929       C1152   1.492   1_554  S
C930       C1163   1.411   1_556  A
C930        H935   1.082       .  S
C931       C1162   1.411       .  A
C931        C932   1.406       .  A
C931       C1145   1.494       .  S
C932        C933   1.400       .  A
C932        H936   1.083       .  S
C933       C1166   1.399       .  A
C933       C1135   1.481       .  S
C934       C1165   1.399       .  A
C934        H937   1.083       .  S
C938        C939   1.410       .  A
C938        C943   1.407       .  A
C938       C1122   1.492       .  S
C939        C940   1.409       .  A
C939        H944   1.082       .  S
C940        C941   1.404       .  A
C940       C1112   1.487       .  S
C941        C942   1.398       .  A
C941        H945   1.083       .  S
C942        C943   1.398       .  A
C942       C1102   1.477       .  S
C943        H946   1.084       .  S
C947        C948   1.405       .  A
C947        C952   1.406       .  A
C947       C1092   1.484       .  S
C948        C949   1.402       .  A
C948        H953   1.084       .  S
C949       C1182   1.402       .  A
C949       C1132   1.483       .  S
C950       C1181   1.402       .  A
C950        C951   1.407   1_554  A
C950        H954   1.083       .  S
C951       C1184   1.408       .  A
C951       C1082   1.492       .  S
C952       C1183   1.408       .  A
C952        H955   1.083       .  S
O956        V964   1.898       .  S
O956       C1430   1.265       .  A
O957        V964   1.900       .  S
O957        C967   1.264       .  A
O958        V964   1.896       .  S
O958        C968   1.263       .  A
O959        V964   1.896       .  S
O959        C969   1.263       .  A
O960        V965   1.903       .  S
O960       C1433   1.265   1_545  A
O961        V965   1.903       .  S
O961       C1432   1.264   1_545  A
O962        V965   1.898       .  S
O962       C1431   1.264   1_545  A
O963        V965   1.900       .  S
O963        C966   1.264       .  A
V964       V1429   2.089       .  T
V965       V1428   2.089   1_545  T
C966       C1052   1.476       .  S
C966       O1420   1.265   1_545  A
C967       C1115   1.472       .  S
C967       O1426   1.264       .  A
C968       C1075   1.468       .  S
C968       O1425   1.264       .  A
C969       C1062   1.473       .  S
C969       O1424   1.265       .  A
O970       V1442   1.904   1_554  S
O970        C980   1.265   1_554  A
O971       V1210   1.899       .  S
O971       C1213   1.265       .  A
O972       V1210   1.900   1_565  S
O972       C1446   1.265       .  A
O973        V978   1.902   1_554  S
O973       C1447   1.265   1_545  A
O974        V979   1.900   1_554  S
O974        C983   1.265       .  A
O975       V1211   1.899       .  S
O975        C982   1.264       .  A
O976       V1443   1.903   1_544  S
O976        C981   1.265   1_554  A
O977       V1211   1.900       .  S
O977       C1212   1.265       .  A
V978       O1434   1.904   1_546  S
V978       O1203   1.899       .  S
V978       O1204   1.900   1_545  S
V978       V1443   2.081   1_545  T
V979       O1207   1.899       .  S
V979       O1440   1.903   1_556  S
V979       O1209   1.900       .  S
V979       V1442   2.081       .  T
C980       C1085   1.479       .  S
C980       O1209   1.265       .  A
C981       C1155   1.479       .  S
C981       O1203   1.265       .  A
C982       C1072   1.477       .  S
C982       O1436   1.265       .  A
C983       C1065   1.474       .  S
C983       O1437   1.265       .  A
C984        C985   1.403       .  A
C984        C989   1.407       .  A
C984       C1045   1.486       .  S
C985        C986   1.399       .  A
C985        H990   1.084       .  S
C986        C987   1.401       .  A
C986       C1105   1.481       .  S
C987        C988   1.407       .  A
C987        H991   1.082       .  S
C988        C989   1.410       .  A
C988       C1055   1.492       .  S
C989        H992   1.083       .  S
O993       V1001   1.900       .  S
O994       V1001   1.893       .  S
O995       V1001   1.903       .  S
O995       C1005   1.264       .  A
O996       V1001   1.900       .  S
O997       V1002   1.898       .  S
O997       C1006   1.263       .  A
O998       V1002   1.895       .  S
O999       V1002   1.906       .  S
O999       C1004   1.266       .  A
O1000      V1002   1.901       .  S
O1000      C1003   1.265       .  A
C1003      C1022   1.481       .  S
C1004      C1035   1.476       .  S
C1005      C1125   1.473       .  S
C1006      C1042   1.474       .  S
O1007      V1247   1.903       .  S
O1007      C1249   1.266   1_554  A
O1008      C1018   1.265       .  A
O1009      V1015   1.894       .  S
O1010      V1247   1.902       .  S
O1011      V1248   1.899       .  S
O1011      C1020   1.264       .  A
O1012      V1016   1.906       .  S
O1012      C1019   1.265       .  A
O1013      V1248   1.899       .  S
O1013      C1250   1.264       .  A
O1014      C1017   1.264       .  A
V1015      O1239   1.903       .  S
V1015      O1242   1.902       .  S
V1016      O1243   1.899       .  S
V1016      O1245   1.899       .  S
C1017      C1142   1.478       .  S
C1017      O1239   1.266       .  A
C1018      C1095   1.472       .  S
C1018      O1245   1.264       .  A
C1019      C1032   1.470       .  S
C1020      C1025   1.469       .  S
C1021      C1022   1.406       .  A
C1021      C1026   1.399       .  A
C1021      H1028   1.083       .  S
C1023      C1024   1.399       .  A
C1023      F1030   1.357       .  S
C1024      H1029   1.084       .  S
C1025      C1026   1.403       .  A
C1026      F1027   1.358       .  S
C1031      C1032   1.403       .  A
C1031      C1036   1.402       .  A
C1031      H1038   1.083       .  S
C1033      C1034   1.395       .  A
C1033      F1040   1.358       .  S
C1034      H1039   1.083       .  S
C1035      C1036   1.408       .  A
C1036      F1037   1.357       .  S
C1041      C1042   1.401       .  A
C1041      C1046   1.395       .  A
C1041      H1048   1.083       .  S
C1042      C1043   1.407       .  A
C1043      C1044   1.400       .  A
C1043      F1050   1.357       .  S
C1044      C1045   1.406       .  A
C1044      H1049   1.083       .  S
C1045      C1046   1.409       .  A
C1046      F1047   1.358       .  S
C1051      C1052   1.401       .  A
C1051      C1056   1.396       .  A
C1051      H1522   1.084   1_545  S
C1052      C1053   1.406       .  A
C1053      C1054   1.400       .  A
C1053      F1060   1.357       .  S
C1054      C1055   1.408       .  A
C1054      H1059   1.083       .  S
C1055      C1056   1.412       .  A
C1056      F1521   1.357       .  S
F1057      C1520   1.357       .  S
H1058      C1515   1.084       .  S
C1061      C1526   1.403   1_545  A
C1061      C1066   1.400       .  A
C1061      H1068   1.083       .  S
C1062      C1525   1.403       .  A
C1062      C1063   1.405       .  A
C1063      C1064   1.398       .  A
C1063      F1070   1.358       .  S
C1064      C1065   1.403       .  A
C1064      H1069   1.083       .  S
C1065      C1530   1.407       .  A
C1066      C1529   1.407   1_545  A
C1066      F1067   1.358       .  S
C1071      C1072   1.405       .  A
C1071      C1076   1.398       .  A
C1071      H1078   1.083       .  S
C1072      C1073   1.409       .  A
C1073      C1074   1.399       .  A
C1073      F1080   1.358       .  S
C1074      C1075   1.401       .  A
C1074      H1079   1.083       .  S
C1075      C1076   1.403       .  A
C1076      F1077   1.358       .  S
C1081      C1314   1.408       .  A
C1081      C1086   1.401       .  A
C1081      H1088   1.082       .  S
C1082      C1313   1.408   1_556  A
C1082      C1083   1.411       .  A
C1083      C1084   1.397       .  A
C1083      F1090   1.358       .  S
C1084      C1085   1.403       .  A
C1084      H1089   1.083       .  S
C1085      C1318   1.406   1_556  A
C1086      C1317   1.406       .  A
C1086      F1087   1.357       .  S
C1091      C1092   1.406       .  A
C1091      C1096   1.399       .  A
C1091      H1098   1.083       .  S
C1092      C1325   1.408       .  A
C1093      C1324   1.408       .  A
C1093      C1094   1.398       .  A
C1093      F1100   1.358       .  S
C1094      C1327   1.402       .  A
C1094      H1099   1.083       .  S
C1095      C1326   1.402       .  A
C1095      C1096   1.404       .  A
C1096      F1097   1.357       .  S
C1101      C1106   1.398       .  A
C1101      H1108   1.083       .  S
C1102      C1567   1.404       .  A
C1103      C1566   1.404       .  A
C1103      C1104   1.395   1_665  A
C1103      F1110   1.358       .  S
C1104      H1109   1.083       .  S
C1105      C1570   1.407   1_545  A
C1106      C1569   1.407       .  A
C1106      F1107   1.357       .  S
C1111      C1112   1.407       .  A
C1111      C1116   1.400       .  A
C1111      H1118   1.083       .  S
C1112      C1113   1.411       .  A
C1113      C1114   1.396       .  A
C1113      F1120   1.358       .  S
C1114      C1115   1.401       .  A
C1114      H1583   1.084       .  S
C1115      C1116   1.405       .  A
C1116      F1117   1.357       .  S
H1119      C1578   1.084       .  S
C1121      C1122   1.408       .  A
C1121      C1126   1.393       .  A
C1122      C1123   1.412       .  A
C1123      C1124   1.402       .  A
C1123      F1130   1.357       .  S
C1124      C1125   1.404       .  A
C1124      H1129   1.083       .  S
C1125      C1126   1.402       .  A
C1131      C1132   1.404       .  A
C1131      C1136   1.396       .  A
C1131      H1138   1.084       .  S
C1132      C1365   1.408       .  A
C1133      C1364   1.408       .  A
C1133      C1134   1.400       .  A
C1133      F1140   1.357       .  S
C1134      C1367   1.404       .  A
C1134      H1139   1.083       .  S
C1135      C1366   1.404       .  A
C1135      C1136   1.406       .  A
C1136      F1137   1.358       .  S
C1141      C1142   1.404       .  A
C1141      C1146   1.400       .  A
C1141      H1148   1.083       .  S
C1142      C1375   1.404       .  A
C1143      C1374   1.404       .  A
C1143      C1144   1.398       .  A
C1143      F1150   1.358       .  S
C1144      C1377   1.409       .  A
C1144      H1149   1.083       .  S
C1145      C1376   1.409       .  A
C1145      C1146   1.411       .  A
C1146      F1147   1.357       .  S
C1151      C1384   1.407       .  A
C1151      C1156   1.396       .  A
C1151      H1158   1.083       .  S
C1152      C1383   1.407       .  A
C1152      C1153   1.411   1_556  A
C1153      C1154   1.402       .  A
C1153      F1160   1.357       .  S
C1154      C1155   1.405   1_554  A
C1154      H1159   1.084       .  S
C1155      C1388   1.406       .  A
C1156      C1387   1.406       .  A
C1156      F1157   1.358       .  S
C1161      C1162   1.410       .  A
C1161      C1166   1.407       .  A
C1161      C1384   1.492       .  S
C1162      H1167   1.082       .  S
C1163      C1164   1.406       .  A
C1163      C1377   1.494   1_554  S
C1164      C1165   1.400       .  A
C1164      H1168   1.083       .  S
C1165      C1367   1.481       .  S
C1166      H1169   1.083       .  S
C1170      C1171   1.410       .  A
C1170      C1175   1.407       .  A
C1170      C1354   1.492       .  S
C1171      C1172   1.409       .  A
C1171      H1176   1.082       .  S
C1172      C1173   1.404       .  A
C1172      C1344   1.487       .  S
C1173      C1174   1.398       .  A
C1173      H1177   1.083       .  S
C1174      C1175   1.398       .  A
C1174      C1334   1.477       .  S
C1175      H1178   1.084       .  S
C1179      C1180   1.405       .  A
C1179      C1184   1.406   1_554  A
C1179      C1324   1.484       .  S
C1180      C1181   1.402       .  A
C1180      H1185   1.084       .  S
C1181      C1364   1.483       .  S
C1182      C1183   1.407       .  A
C1182      H1186   1.083       .  S
C1183      C1314   1.492       .  S
C1184      H1187   1.083       .  S
O1188      V1196   1.898       .  S
O1188      C1662   1.265       .  A
O1189      V1196   1.900       .  S
O1189      C1199   1.264       .  A
O1190      V1196   1.896       .  S
O1190      C1200   1.263       .  A
O1191      V1196   1.896       .  S
O1191      C1201   1.263       .  A
O1192      V1197   1.903       .  S
O1192      C1665   1.265   1_545  A
O1193      V1197   1.903       .  S
O1193      C1664   1.264   1_545  A
O1194      V1197   1.898       .  S
O1194      C1663   1.264   1_545  A
O1195      V1197   1.900       .  S
O1195      C1198   1.264       .  A
V1196      V1661   2.089       .  T
V1197      V1660   2.089   1_545  T
C1198      C1284   1.476       .  S
C1198      O1652   1.265   1_545  A
C1199      C1347   1.472       .  S
C1199      O1658   1.264       .  A
C1200      C1307   1.468       .  S
C1200      O1657   1.264       .  A
C1201      C1294   1.473       .  S
C1201      O1656   1.265       .  A
O1202      V1674   1.904       .  S
O1202      C1212   1.265       .  A
O1204      C1678   1.265       .  A
O1205      V1210   1.902       .  S
O1205      C1679   1.265   1_545  A
O1206      V1211   1.900       .  S
O1206      C1215   1.265       .  A
O1207      C1214   1.264       .  A
O1208      V1675   1.903   1_545  S
O1208      C1213   1.265       .  A
V1210      O1666   1.904   1_545  S
V1210      V1675   2.081   1_545  T
V1211      O1672   1.903       .  S
V1211      V1674   2.081       .  T
C1212      C1317   1.479       .  S
C1213      C1387   1.479       .  S
C1214      C1304   1.477       .  S
C1214      O1668   1.265       .  A
C1215      C1297   1.474       .  S
C1215      O1669   1.265       .  A
C1216      C1217   1.403       .  A
C1216      C1221   1.407       .  A
C1216      C1277   1.486       .  S
C1217      C1218   1.399       .  A
C1217      H1222   1.084       .  S
C1218      C1219   1.401       .  A
C1218      C1337   1.481       .  S
C1219      C1220   1.407       .  A
C1219      H1223   1.082       .  S
C1220      C1221   1.410       .  A
C1220      C1287   1.492       .  S
C1221      H1224   1.083       .  S
O1225      V1233   1.900       .  S
O1226      V1233   1.893       .  S
O1227      V1233   1.903       .  S
O1227      C1237   1.264       .  A
O1228      V1233   1.900       .  S
O1229      V1234   1.898       .  S
O1229      C1238   1.263       .  A
O1230      V1234   1.895       .  S
O1231      V1234   1.906       .  S
O1231      C1236   1.266       .  A
O1232      V1234   1.901       .  S
O1232      C1235   1.265       .  A
C1235      C1254   1.481       .  S
C1236      C1267   1.476       .  S
C1237      C1357   1.473       .  S
C1238      C1274   1.474       .  S
O1240      C1250   1.265   1_556  A
O1241      V1247   1.894   1_556  S
O1243      C1252   1.264       .  A
O1244      V1248   1.906   1_556  S
O1244      C1251   1.265       .  A
O1246      C1249   1.264       .  A
C1249      C1374   1.478       .  S
C1250      C1327   1.472       .  S
C1251      C1264   1.470       .  S
C1252      C1257   1.469       .  S
C1253      C1254   1.406       .  A
C1253      C1258   1.399       .  A
C1253      H1260   1.083       .  S
C1255      C1256   1.399       .  A
C1255      F1262   1.357       .  S
C1256      H1261   1.084       .  S
C1257      C1258   1.403       .  A
C1258      F1259   1.358       .  S
C1263      C1264   1.403       .  A
C1263      C1268   1.402       .  A
C1263      H1270   1.083       .  S
C1265      C1266   1.395       .  A
C1265      F1272   1.358       .  S
C1266      H1271   1.083       .  S
C1267      C1268   1.408       .  A
C1268      F1269   1.357       .  S
C1273      C1274   1.401       .  A
C1273      C1278   1.395       .  A
C1273      H1280   1.083       .  S
C1274      C1275   1.407       .  A
C1275      C1276   1.400       .  A
C1275      F1282   1.357       .  S
C1276      C1277   1.406       .  A
C1276      H1281   1.083       .  S
C1277      C1278   1.409       .  A
C1278      F1279   1.358       .  S
C1283      C1284   1.401       .  A
C1283      C1288   1.396       .  A
C1283      H1754   1.084   1_545  S
C1284      C1285   1.406       .  A
C1285      C1286   1.400       .  A
C1285      F1292   1.357       .  S
C1286      C1287   1.408       .  A
C1286      H1291   1.083       .  S
C1287      C1288   1.412       .  A
C1288      F1753   1.357       .  S
F1289      C1752   1.357       .  S
H1290      C1747   1.084       .  S
C1293      C1758   1.403   1_545  A
C1293      C1298   1.400       .  A
C1293      H1300   1.083       .  S
C1294      C1757   1.403       .  A
C1294      C1295   1.405       .  A
C1295      C1296   1.398       .  A
C1295      F1302   1.358       .  S
C1296      C1297   1.403       .  A
C1296      H1301   1.083       .  S
C1297      C1762   1.407       .  A
C1298      C1761   1.407   1_545  A
C1298      F1299   1.358       .  S
C1303      C1304   1.405       .  A
C1303      C1308   1.398       .  A
C1303      H1310   1.083       .  S
C1304      C1305   1.409       .  A
C1305      C1306   1.399       .  A
C1305      F1312   1.358       .  S
C1306      C1307   1.401       .  A
C1306      H1311   1.083       .  S
C1307      C1308   1.403       .  A
C1308      F1309   1.358       .  S
C1313      C1318   1.401       .  A
C1313      H1320   1.082       .  S
C1314      C1315   1.411       .  A
C1315      C1316   1.397       .  A
C1315      F1322   1.358       .  S
C1316      C1317   1.403       .  A
C1316      H1321   1.083       .  S
C1318      F1319   1.357       .  S
C1323      C1324   1.406   1_556  A
C1323      C1328   1.399       .  A
C1323      H1330   1.083       .  S
C1325      C1326   1.398       .  A
C1325      F1332   1.358       .  S
C1326      H1331   1.083       .  S
C1327      C1328   1.404   1_554  A
C1328      F1329   1.357       .  S
C1333      C1338   1.398       .  A
C1333      H1340   1.083       .  S
C1334      C1799   1.404       .  A
C1335      C1798   1.404       .  A
C1335      C1336   1.395   1_665  A
C1335      F1342   1.358       .  S
C1336      H1341   1.083       .  S
C1337      C1802   1.407   1_545  A
C1338      C1801   1.407       .  A
C1338      F1339   1.357       .  S
C1343      C1344   1.407       .  A
C1343      C1348   1.400       .  A
C1343      H1350   1.083       .  S
C1344      C1345   1.411       .  A
C1345      C1346   1.396       .  A
C1345      F1352   1.358       .  S
C1346      C1347   1.401       .  A
C1346      H1815   1.084       .  S
C1347      C1348   1.405       .  A
C1348      F1349   1.357       .  S
H1351      C1810   1.084       .  S
C1353      C1354   1.408       .  A
C1353      C1358   1.393       .  A
C1354      C1355   1.412       .  A
C1355      C1356   1.402       .  A
C1355      F1362   1.357       .  S
C1356      C1357   1.404       .  A
C1356      H1361   1.083       .  S
C1357      C1358   1.402       .  A
C1363      C1364   1.404   1_556  A
C1363      C1368   1.396       .  A
C1363      H1370   1.084       .  S
C1365      C1366   1.400       .  A
C1365      F1372   1.357       .  S
C1366      H1371   1.083       .  S
C1367      C1368   1.406   1_554  A
C1368      F1369   1.358       .  S
C1373      C1374   1.404   1_554  A
C1373      C1378   1.400       .  A
C1373      H1380   1.083       .  S
C1375      C1376   1.398       .  A
C1375      F1382   1.358       .  S
C1376      H1381   1.083       .  S
C1377      C1378   1.411   1_556  A
C1378      F1379   1.357       .  S
C1383      C1388   1.396       .  A
C1383      H1390   1.083       .  S
C1384      C1385   1.411       .  A
C1385      C1386   1.402       .  A
C1385      F1392   1.357       .  S
C1386      C1387   1.405       .  A
C1386      H1391   1.084       .  S
C1388      F1389   1.358       .  S
C1393      C1394   1.410   1_554  A
C1393      C1398   1.407       .  A
C1393      C1616   1.492   1_554  S
C1394      C1627   1.411   1_556  A
C1394      H1399   1.082       .  S
C1395      C1626   1.411       .  A
C1395      C1396   1.406       .  A
C1395      C1609   1.494       .  S
C1396      C1397   1.400       .  A
C1396      H1400   1.083       .  S
C1397      C1630   1.399       .  A
C1397      C1599   1.481       .  S
C1398      C1629   1.399       .  A
C1398      H1401   1.083       .  S
C1402      C1403   1.410       .  A
C1402      C1407   1.407       .  A
C1402      C1586   1.492       .  S
C1403      C1404   1.409       .  A
C1403      H1408   1.082       .  S
C1404      C1405   1.404       .  A
C1404      C1576   1.487       .  S
C1405      C1406   1.398       .  A
C1405      H1409   1.083       .  S
C1406      C1407   1.398       .  A
C1406      C1566   1.477       .  S
C1407      H1410   1.084       .  S
C1411      C1412   1.405       .  A
C1411      C1416   1.406       .  A
C1411      C1556   1.484       .  S
C1412      C1413   1.402       .  A
C1412      H1417   1.084       .  S
C1413      C1646   1.402       .  A
C1413      C1596   1.483       .  S
C1414      C1645   1.402       .  A
C1414      C1415   1.407   1_554  A
C1414      H1418   1.083       .  S
C1415      C1648   1.408       .  A
C1415      C1546   1.492       .  S
C1416      C1647   1.408       .  A
C1416      H1419   1.083       .  S
O1420      V1428   1.898       .  S
O1421      V1428   1.900       .  S
O1421      C1431   1.264       .  A
O1422      V1428   1.896       .  S
O1422      C1432   1.263       .  A
O1423      V1428   1.896       .  S
O1423      C1433   1.263       .  A
O1424      V1429   1.903       .  S
O1425      V1429   1.903       .  S
O1426      V1429   1.898       .  S
O1427      V1429   1.900       .  S
O1427      C1430   1.264       .  A
C1430      C1516   1.476       .  S
C1431      C1579   1.472       .  S
C1432      C1539   1.468       .  S
C1433      C1526   1.473       .  S
O1434      C1444   1.265   1_554  A
O1435      V1674   1.899       .  S
O1435      C1677   1.265       .  A
O1436      V1674   1.900       .  S
O1437      V1442   1.902   1_554  S
O1438      V1443   1.900   1_554  S
O1438      C1447   1.265       .  A
O1439      V1675   1.899       .  S
O1439      C1446   1.264       .  A
O1440      C1445   1.265   1_554  A
O1441      V1675   1.900       .  S
O1441      C1676   1.265       .  A
V1442      O1667   1.899       .  S
V1442      O1668   1.900       .  S
V1443      O1671   1.899       .  S
V1443      O1673   1.900       .  S
C1444      C1549   1.479       .  S
C1444      O1673   1.265       .  A
C1445      C1619   1.479       .  S
C1445      O1667   1.265       .  A
C1446      C1536   1.477       .  S
C1447      C1529   1.474       .  S
C1448      C1449   1.403       .  A
C1448      C1453   1.407       .  A
C1448      C1509   1.486       .  S
C1449      C1450   1.399       .  A
C1449      H1454   1.084       .  S
C1450      C1451   1.401       .  A
C1450      C1569   1.481       .  S
C1451      C1452   1.407       .  A
C1451      H1455   1.082       .  S
C1452      C1453   1.410       .  A
C1452      C1519   1.492       .  S
C1453      H1456   1.083       .  S
O1457      V1465   1.900       .  S
O1458      V1465   1.893       .  S
O1459      V1465   1.903       .  S
O1459      C1469   1.264       .  A
O1460      V1465   1.900       .  S
O1461      V1466   1.898       .  S
O1461      C1470   1.263       .  A
O1462      V1466   1.895       .  S
O1463      V1466   1.906       .  S
O1463      C1468   1.266       .  A
O1464      V1466   1.901       .  S
O1464      C1467   1.265       .  A
C1467      C1486   1.481       .  S
C1468      C1499   1.476       .  S
C1469      C1589   1.473       .  S
C1470      C1506   1.474       .  S
O1471      V1711   1.903       .  S
O1471      C1713   1.266   1_554  A
O1472      C1482   1.265       .  A
O1473      V1479   1.894       .  S
O1474      V1711   1.902       .  S
O1475      V1712   1.899       .  S
O1475      C1484   1.264       .  A
O1476      V1480   1.906       .  S
O1476      C1483   1.265       .  A
O1477      V1712   1.899       .  S
O1477      C1714   1.264       .  A
O1478      C1481   1.264       .  A
V1479      O1703   1.903       .  S
V1479      O1706   1.902       .  S
V1480      O1707   1.899       .  S
V1480      O1709   1.899       .  S
C1481      C1606   1.478       .  S
C1481      O1703   1.266       .  A
C1482      C1559   1.472       .  S
C1482      O1709   1.264       .  A
C1483      C1496   1.470       .  S
C1484      C1489   1.469       .  S
C1485      C1486   1.406       .  A
C1485      C1490   1.399       .  A
C1485      H1492   1.083       .  S
C1487      C1488   1.399       .  A
C1487      F1494   1.357       .  S
C1488      H1493   1.084       .  S
C1489      C1490   1.403       .  A
C1490      F1491   1.358       .  S
C1495      C1496   1.403       .  A
C1495      C1500   1.402       .  A
C1495      H1502   1.083       .  S
C1497      C1498   1.395       .  A
C1497      F1504   1.358       .  S
C1498      H1503   1.083       .  S
C1499      C1500   1.408       .  A
C1500      F1501   1.357       .  S
C1505      C1506   1.401       .  A
C1505      C1510   1.395       .  A
C1505      H1512   1.083       .  S
C1506      C1507   1.407       .  A
C1507      C1508   1.400       .  A
C1507      F1514   1.357       .  S
C1508      C1509   1.406       .  A
C1508      H1513   1.083       .  S
C1509      C1510   1.409       .  A
C1510      F1511   1.358       .  S
C1515      C1516   1.401       .  A
C1515      C1520   1.396       .  A
C1516      C1517   1.406       .  A
C1517      C1518   1.400       .  A
C1517      F1524   1.357       .  S
C1518      C1519   1.408       .  A
C1518      H1523   1.083       .  S
C1519      C1520   1.412       .  A
C1525      C1530   1.400       .  A
C1525      H1532   1.083       .  S
C1526      C1527   1.405       .  A
C1527      C1528   1.398       .  A
C1527      F1534   1.358       .  S
C1528      C1529   1.403       .  A
C1528      H1533   1.083       .  S
C1530      F1531   1.358       .  S
C1535      C1536   1.405       .  A
C1535      C1540   1.398       .  A
C1535      H1542   1.083       .  S
C1536      C1537   1.409   1_565  A
C1537      C1538   1.399       .  A
C1537      F1544   1.358       .  S
C1538      C1539   1.401   1_545  A
C1538      H1543   1.083       .  S
C1539      C1540   1.403       .  A
C1540      F1541   1.358       .  S
C1545      C1778   1.408       .  A
C1545      C1550   1.401       .  A
C1545      H1552   1.082       .  S
C1546      C1777   1.408   1_556  A
C1546      C1547   1.411       .  A
C1547      C1548   1.397       .  A
C1547      F1554   1.358       .  S
C1548      C1549   1.403       .  A
C1548      H1553   1.083       .  S
C1549      C1782   1.406   1_556  A
C1550      C1781   1.406       .  A
C1550      F1551   1.357       .  S
C1555      C1556   1.406       .  A
C1555      C1560   1.399       .  A
C1555      H1562   1.083       .  S
C1556      C1789   1.408       .  A
C1557      C1788   1.408       .  A
C1557      C1558   1.398       .  A
C1557      F1564   1.358       .  S
C1558      C1791   1.402       .  A
C1558      H1563   1.083       .  S
C1559      C1790   1.402       .  A
C1559      C1560   1.404       .  A
C1560      F1561   1.357       .  S
C1565      C1570   1.398       .  A
C1565      H1572   1.083       .  S
C1567      C1568   1.395   1_655  A
C1567      F1574   1.358       .  S
C1568      H1573   1.083       .  S
C1570      F1571   1.357       .  S
C1575      C1576   1.407       .  A
C1575      C1580   1.400       .  A
C1575      H1582   1.083       .  S
C1576      C1577   1.411       .  A
C1577      C1578   1.396       .  A
C1577      F1584   1.358       .  S
C1578      C1579   1.401       .  A
C1579      C1580   1.405       .  A
C1580      F1581   1.357       .  S
C1585      C1586   1.408       .  A
C1585      C1590   1.393       .  A
C1586      C1587   1.412       .  A
C1587      C1588   1.402       .  A
C1587      F1594   1.357       .  S
C1588      C1589   1.404       .  A
C1588      H1593   1.083       .  S
C1589      C1590   1.402       .  A
C1595      C1596   1.404       .  A
C1595      C1600   1.396       .  A
C1595      H1602   1.084       .  S
C1596      C1829   1.408       .  A
C1597      C1828   1.408       .  A
C1597      C1598   1.400       .  A
C1597      F1604   1.357       .  S
C1598      C1831   1.404       .  A
C1598      H1603   1.083       .  S
C1599      C1830   1.404       .  A
C1599      C1600   1.406       .  A
C1600      F1601   1.358       .  S
C1605      C1606   1.404       .  A
C1605      C1610   1.400       .  A
C1605      H1612   1.083       .  S
C1606      C1839   1.404       .  A
C1607      C1838   1.404       .  A
C1607      C1608   1.398       .  A
C1607      F1614   1.358       .  S
C1608      C1841   1.409       .  A
C1608      H1613   1.083       .  S
C1609      C1840   1.409       .  A
C1609      C1610   1.411       .  A
C1610      F1611   1.357       .  S
C1615      C1848   1.407       .  A
C1615      C1620   1.396       .  A
C1615      H1622   1.083       .  S
C1616      C1847   1.407       .  A
C1616      C1617   1.411   1_556  A
C1617      C1618   1.402       .  A
C1617      F1624   1.357       .  S
C1618      C1619   1.405   1_554  A
C1618      H1623   1.084       .  S
C1619      C1852   1.406       .  A
C1620      C1851   1.406       .  A
C1620      F1621   1.358       .  S
C1625      C1626   1.410       .  A
C1625      C1630   1.407       .  A
C1625      C1848   1.492       .  S
C1626      H1631   1.082       .  S
C1627      C1628   1.406       .  A
C1627      C1841   1.494   1_554  S
C1628      C1629   1.400       .  A
C1628      H1632   1.083       .  S
C1629      C1831   1.481       .  S
C1630      H1633   1.083       .  S
C1634      C1635   1.410       .  A
C1634      C1639   1.407       .  A
C1634      C1818   1.492       .  S
C1635      C1636   1.409       .  A
C1635      H1640   1.082       .  S
C1636      C1637   1.404       .  A
C1636      C1808   1.487       .  S
C1637      C1638   1.398       .  A
C1637      H1641   1.083       .  S
C1638      C1639   1.398       .  A
C1638      C1798   1.477       .  S
C1639      H1642   1.084       .  S
C1643      C1644   1.405       .  A
C1643      C1648   1.406   1_554  A
C1643      C1788   1.484       .  S
C1644      C1645   1.402       .  A
C1644      H1649   1.084       .  S
C1645      C1828   1.483       .  S
C1646      C1647   1.407       .  A
C1646      H1650   1.083       .  S
C1647      C1778   1.492       .  S
C1648      H1651   1.083       .  S
O1652      V1660   1.898       .  S
O1653      V1660   1.900       .  S
O1653      C1663   1.264       .  A
O1654      V1660   1.896       .  S
O1654      C1664   1.263       .  A
O1655      V1660   1.896       .  S
O1655      C1665   1.263       .  A
O1656      V1661   1.903       .  S
O1657      V1661   1.903       .  S
O1658      V1661   1.898       .  S
O1659      V1661   1.900       .  S
O1659      C1662   1.264       .  A
C1662      C1748   1.476       .  S
C1663      C1811   1.472       .  S
C1664      C1771   1.468       .  S
C1665      C1758   1.473       .  S
O1666      C1676   1.265       .  A
O1669      V1674   1.902       .  S
O1670      V1675   1.900       .  S
O1670      C1679   1.265       .  A
O1671      C1678   1.264       .  A
O1672      C1677   1.265       .  A
C1676      C1781   1.479       .  S
C1677      C1851   1.479       .  S
C1678      C1768   1.477       .  S
C1679      C1761   1.474       .  S
C1680      C1681   1.403       .  A
C1680      C1685   1.407       .  A
C1680      C1741   1.486       .  S
C1681      C1682   1.399       .  A
C1681      H1686   1.084       .  S
C1682      C1683   1.401       .  A
C1682      C1801   1.481       .  S
C1683      C1684   1.407       .  A
C1683      H1687   1.082       .  S
C1684      C1685   1.410       .  A
C1684      C1751   1.492       .  S
C1685      H1688   1.083       .  S
O1689      V1697   1.900       .  S
O1690      V1697   1.893       .  S
O1691      V1697   1.903       .  S
O1691      C1701   1.264       .  A
O1692      V1697   1.900       .  S
O1693      V1698   1.898       .  S
O1693      C1702   1.263       .  A
O1694      V1698   1.895       .  S
O1695      V1698   1.906       .  S
O1695      C1700   1.266       .  A
O1696      V1698   1.901       .  S
O1696      C1699   1.265       .  A
C1699      C1718   1.481       .  S
C1700      C1731   1.476       .  S
C1701      C1821   1.473       .  S
C1702      C1738   1.474       .  S
O1704      C1714   1.265   1_556  A
O1705      V1711   1.894   1_556  S
O1707      C1716   1.264       .  A
O1708      V1712   1.906   1_556  S
O1708      C1715   1.265       .  A
O1710      C1713   1.264       .  A
C1713      C1838   1.478       .  S
C1714      C1791   1.472       .  S
C1715      C1728   1.470       .  S
C1716      C1721   1.469       .  S
C1717      C1718   1.406       .  A
C1717      C1722   1.399       .  A
C1717      H1724   1.083       .  S
C1719      C1720   1.399       .  A
C1719      F1726   1.357       .  S
C1720      H1725   1.084       .  S
C1721      C1722   1.403       .  A
C1722      F1723   1.358       .  S
C1727      C1728   1.403       .  A
C1727      C1732   1.402       .  A
C1727      H1734   1.083       .  S
C1729      C1730   1.395       .  A
C1729      F1736   1.358       .  S
C1730      H1735   1.083       .  S
C1731      C1732   1.408       .  A
C1732      F1733   1.357       .  S
C1737      C1738   1.401       .  A
C1737      C1742   1.395       .  A
C1737      H1744   1.083       .  S
C1738      C1739   1.407       .  A
C1739      C1740   1.400       .  A
C1739      F1746   1.357       .  S
C1740      C1741   1.406       .  A
C1740      H1745   1.083       .  S
C1741      C1742   1.409       .  A
C1742      F1743   1.358       .  S
C1747      C1748   1.401       .  A
C1747      C1752   1.396       .  A
C1748      C1749   1.406       .  A
C1749      C1750   1.400       .  A
C1749      F1756   1.357       .  S
C1750      C1751   1.408       .  A
C1750      H1755   1.083       .  S
C1751      C1752   1.412       .  A
C1757      C1762   1.400       .  A
C1757      H1764   1.083       .  S
C1758      C1759   1.405       .  A
C1759      C1760   1.398       .  A
C1759      F1766   1.358       .  S
C1760      C1761   1.403       .  A
C1760      H1765   1.083       .  S
C1762      F1763   1.358       .  S
C1767      C1768   1.405       .  A
C1767      C1772   1.398       .  A
C1767      H1774   1.083       .  S
C1768      C1769   1.409   1_565  A
C1769      C1770   1.399       .  A
C1769      F1776   1.358       .  S
C1770      C1771   1.401   1_545  A
C1770      H1775   1.083       .  S
C1771      C1772   1.403       .  A
C1772      F1773   1.358       .  S
C1777      C1782   1.401       .  A
C1777      H1784   1.082       .  S
C1778      C1779   1.411       .  A
C1779      C1780   1.397       .  A
C1779      F1786   1.358       .  S
C1780      C1781   1.403       .  A
C1780      H1785   1.083       .  S
C1782      F1783   1.357       .  S
C1787      C1788   1.406   1_556  A
C1787      C1792   1.399       .  A
C1787      H1794   1.083       .  S
C1789      C1790   1.398       .  A
C1789      F1796   1.358       .  S
C1790      H1795   1.083       .  S
C1791      C1792   1.404   1_554  A
C1792      F1793   1.357       .  S
C1797      C1802   1.398       .  A
C1797      H1804   1.083       .  S
C1799      C1800   1.395   1_655  A
C1799      F1806   1.358       .  S
C1800      H1805   1.083       .  S
C1802      F1803   1.357       .  S
C1807      C1808   1.407       .  A
C1807      C1812   1.400       .  A
C1807      H1814   1.083       .  S
C1808      C1809   1.411       .  A
C1809      C1810   1.396       .  A
C1809      F1816   1.358       .  S
C1810      C1811   1.401       .  A
C1811      C1812   1.405       .  A
C1812      F1813   1.357       .  S
C1817      C1818   1.408       .  A
C1817      C1822   1.393       .  A
C1818      C1819   1.412       .  A
C1819      C1820   1.402       .  A
C1819      F1826   1.357       .  S
C1820      C1821   1.404       .  A
C1820      H1825   1.083       .  S
C1821      C1822   1.402       .  A
C1827      C1828   1.404   1_556  A
C1827      C1832   1.396       .  A
C1827      H1834   1.084       .  S
C1829      C1830   1.400       .  A
C1829      F1836   1.357       .  S
C1830      H1835   1.083       .  S
C1831      C1832   1.406   1_554  A
C1832      F1833   1.358       .  S
C1837      C1838   1.404   1_554  A
C1837      C1842   1.400       .  A
C1837      H1844   1.083       .  S
C1839      C1840   1.398       .  A
C1839      F1846   1.358       .  S
C1840      H1845   1.083       .  S
C1841      C1842   1.411   1_556  A
C1842      F1843   1.357       .  S
C1847      C1852   1.396       .  A
C1847      H1854   1.083       .  S
C1848      C1849   1.411       .  A
C1849      C1850   1.402       .  A
C1849      F1856   1.357       .  S
C1850      C1851   1.405       .  A
C1850      H1855   1.084       .  S
C1852      F1853   1.358       .  S
