geometry optimzed in LAMMPS
_audit_creation_date              2020-11-30 
_audit_creation_method            'lammps2cif' 
_symmetry_space_group_name_H-M    'P1' 
_symmetry_Int_Tables_number       1 
_symmetry_cell_setting            triclinic 
loop_ 
_symmetry_equiv_pos_as_xyz 
  x,y,z 
_cell_length_a                    24.600318993908264 
_cell_length_b                    24.567899488301492 
_cell_length_c                    26.14949364806767 
_cell_angle_alpha                 90.07160594667181 
_cell_angle_beta                  88.50608737498358 
_cell_angle_gamma                 89.93316107127718 
loop_ 
_atom_site_label 
_atom_site_type_symbol 
_atom_site_fract_x 
_atom_site_fract_y 
_atom_site_fract_z 
_atom_site_charge 
C1          C  0.61682884  0.31356330  0.50523499     0.03400
C2          C  0.67174911  0.32894443  0.50868386    -0.12750
C3          C  0.68724451  0.38400476  0.50497115     0.00900
C4          C  0.64666149  0.42386173  0.00040104    -0.11280
C5          C  0.59168640  0.40942908  0.99932132     0.03390
C6          C  0.57719072  0.35437340  0.00075668    -0.10700
H7          H  0.70221876  0.29823728  0.51551866     0.08980
H8          H  0.65768954  0.46647707  0.99851909     0.06510
H9          H  0.53469357  0.34346391  0.99807407     0.06360
C10         C  0.89680377  0.81407388  0.24457811     0.03400
C11         C  0.84173574  0.82919770  0.24624643    -0.12750
C12         C  0.82673271  0.88452158  0.24688927     0.01060
C13         C  0.86782303  0.92430751  0.24577003    -0.11280
C14         C  0.92295513  0.90959836  0.24338233     0.03390
C15         C  0.93707957  0.85436508  0.24327029    -0.10700
H16         H  0.81090207  0.79781986  0.24556714     0.08980
H17         H  0.85693046  0.96705256  0.24650870     0.06510
H18         H  0.97952811  0.84253567  0.24317802     0.06360
C19         C  0.32946883  0.60068822  0.49554101     0.03400
C20         C  0.37006903  0.56097646  0.50094075    -0.12750
C21         C  0.42501894  0.57553010  0.50212455     0.00900
C22         C  0.43942943  0.63058700  0.50017857    -0.11280
C23         C  0.39974579  0.67120518  0.49502704     0.03390
C24         C  0.34474104  0.65586419  0.49265763    -0.10700
H25         H  0.35910811  0.51845354  0.50379912     0.08980
H26         H  0.48179885  0.64161860  0.50342514     0.06510
H27         H  0.31393572  0.68681775  0.48771516     0.06360
O28         O  0.51923401  0.03353610  0.17768737    -0.71510
O29         O  0.52075367  0.03606445  0.32284480    -0.71730
O30         O  0.59281011  0.00900774  0.24779284    -0.71590
O31         O  0.44704908  0.06043128  0.25202438    -0.71600
O32         O  0.41800084  0.97696932  0.25327604    -0.71560
O33         O  0.56372100  0.92561019  0.25225004    -0.71580
O34         O  0.49000956  0.95309413  0.32498878    -0.71520
O35         O  0.49170186  0.94944270  0.17972671    -0.71700
V36         V  0.51941005  0.03313490  0.25020851     1.35240
V37         V  0.49140605  0.95290641  0.25243551     1.35170
C38         C  0.50552003  0.99102670  0.15416899     0.77730
C39         C  0.50538041  0.99505080  0.34844369     0.77780
C40         C  0.60307345  0.95859481  0.24940554     0.77650
C41         C  0.40764342  0.02740528  0.25330292     0.77620
O42         O  0.46385035  0.00664114  0.07519197    -0.71510
O43         O  0.46400031  0.00985509  0.43000144    -0.71730
O44         O  0.43752833  0.93562596  0.00179651    -0.71590
O45         O  0.49042787  0.08075249  0.50403507    -0.71600
O46         O  0.57351467  0.05055596  0.00177206    -0.71560
O47         O  0.52059661  0.90551786  0.49750297    -0.71580
O48         O  0.54752750  0.98061885  0.42739023    -0.71520
O49         O  0.54660696  0.97528495  0.07257930    -0.71700
V50         V  0.46558363  0.00765023  0.00262406     1.35240
V51         V  0.54543412  0.97857094  0.49994688     1.35170
C52         C  0.50521293  0.99053231  0.09842124     0.77730
C53         C  0.50574659  0.99560918  0.40416824     0.77780
C54         C  0.47009878  0.89584989  0.49886085     0.77650
C55         C  0.54092270  0.09038639  0.50383607     0.77620
C56         C  0.18382240  0.10177501  0.25110507     0.03400
C57         C  0.14328525  0.06214432  0.24477299    -0.12750
C58         C  0.08839529  0.07694153  0.24261114     0.00900
C59         C  0.07421142  0.13212389  0.24348381    -0.11280
C60         C  0.11343810  0.17250753  0.25155656     0.03390
C61         C  0.16818435  0.15677968  0.25597998    -0.10700
H62         H  0.15421696  0.01949089  0.24217712     0.08980
H63         H  0.03221458  0.14335010  0.23793977     0.06510
H64         H  0.19841742  0.18730561  0.26414663     0.06360
O65         O  0.04810945  0.51329301  0.32237702    -0.71510
O66         O  0.04975691  0.50747569  0.17719535    -0.71730
O67         O  0.02212261  0.58280054  0.24718574    -0.71590
O68         O  0.07567307  0.43777468  0.25169703    -0.71600
O69         O  0.99274917  0.40746651  0.25205633    -0.71560
O70         O  0.93920081  0.55237763  0.25298094    -0.71580
O71         O  0.96580711  0.47967227  0.17950334    -0.71520
O72         O  0.96611615  0.48016267  0.32472585    -0.71700
V73         V  0.04731978  0.50975947  0.24974978     1.35240
V74         V  0.96758889  0.48049061  0.25216704     1.35170
C75         C  0.00705028  0.49709786  0.34808064     0.77730
C76         C  0.00781248  0.49331680  0.15381178     0.77780
C77         C  0.97158734  0.59214597  0.24966123     0.77650
C78         C  0.04325771  0.39785420  0.25238787     0.77620
O79         O  0.02168891  0.45455419  0.42736530    -0.71510
O80         O  0.02337939  0.45278549  0.07251295    -0.71730
O81         O  0.94997304  0.42727051  0.50184412    -0.71590
O82         O  0.09499117  0.48017654  0.99733240    -0.71600
O83         O  0.06492335  0.56332065  0.50111770    -0.71560
O84         O  0.91989728  0.51044771  0.00342680    -0.71580
O85         O  0.99201491  0.53560177  0.07455544    -0.71520
O86         O  0.99269651  0.53823287  0.42930245    -0.71700
V87         V  0.02192721  0.45532672  0.49987821     1.35240
V88         V  0.99296654  0.53528343  0.00198276     1.35170
C89         C  0.00722307  0.49674291  0.40380657     0.77730
C90         C  0.00766006  0.49381002  0.09806786     0.77780
C91         C  0.91019104  0.45989836  0.50352736     0.77650
C92         C  0.10467871  0.53069867  0.49851913     0.77620
C93         C  0.09702974  0.23093057  0.25477267    -0.05200
C94         C  0.12982235  0.27115807  0.23133391    -0.32630
C95         C  0.11377187  0.32593838  0.23159780     0.36620
C96         C  0.06334283  0.34116966  0.25407404    -0.05550
C97         C  0.03109829  0.30136573  0.27833457    -0.32520
C98         C  0.04800343  0.24709435  0.27988404     0.36530
H99         H  0.16751230  0.26006292  0.21164723     0.16900
O100        O  0.14637495  0.36371881  0.20744034    -0.60020
H101        H  0.99283218  0.31253084  0.29699577     0.16910
O102        O  0.01633283  0.21043924  0.30660646    -0.60120
H103        H  0.03330277  0.20708445  0.34044676     0.43910
H104        H  0.17328362  0.37450433  0.23316826     0.43870
C105        C  0.24201371  0.08495624  0.25362647    -0.05200
C106        C  0.25565125  0.03710384  0.27993562    -0.32630
C107        C  0.30918675  0.01781102  0.27981154     0.36620
C108        C  0.35087372  0.04727829  0.25451790    -0.05550
C109        C  0.33786668  0.09590619  0.22951155    -0.32520
C110        C  0.28398926  0.11456302  0.22842071     0.36530
H111        H  0.22460731  0.01420144  0.30063844     0.16900
O112        O  0.32056125  0.97093113  0.30592067    -0.60020
H113        H  0.36935436  0.11871408  0.20927537     0.16910
O114        O  0.27243654  0.15973729  0.19984945    -0.60120
H115        H  0.28752937  0.19097753  0.21890023     0.43910
H116        H  0.31152692  0.94086974  0.28225945     0.43870
C117        C  0.45005182  0.83933371  0.49643658    -0.05200
C118        C  0.47887833  0.80117480  0.46644446    -0.32630
C119        C  0.46194470  0.74686385  0.46419510     0.36620
C120        C  0.41598939  0.72952795  0.49327447    -0.05550
C121        C  0.38652434  0.76815808  0.02247694    -0.32520
C122        C  0.40285435  0.82276382  0.02372082     0.36530
H123        H  0.51441639  0.81364967  0.44407623     0.16900
O124        O  0.48913576  0.71156540  0.43177331    -0.60020
H125        H  0.35138648  0.75577995  0.04542003     0.16910
O126        O  0.37407194  0.85892720  0.05389445    -0.60120
H127        H  0.34370237  0.87140026  0.03259206     0.43910
H128        H  0.52583594  0.70706015  0.44607569     0.43870
C129        C  0.16126674  0.55067850  0.49632302    -0.05200
C130        C  0.20048951  0.52151742  0.46771283    -0.32630
C131        C  0.25486561  0.53825456  0.46567935     0.36620
C132        C  0.27124427  0.58433639  0.49373907    -0.05550
C133        C  0.23159577  0.61411662  0.02161180    -0.32520
C134        C  0.17693292  0.59804872  0.02248665     0.36530
H135        H  0.18881518  0.48587543  0.44615731     0.16900
O136        O  0.29116005  0.51081992  0.43426292    -0.60020
H137        H  0.24310595  0.64937103  0.04375322     0.16910
O138        O  0.13969057  0.62733820  0.05116638    -0.60120
H139        H  0.12839118  0.65757785  0.02868509     0.43910
H140        H  0.29449450  0.47390038  0.44921923     0.43870
C141        C  0.96562138  0.95218877  0.24231450    -0.05200
C142        C  0.96247488  0.99493665  0.27788730    -0.32630
C143        C  0.00180591  0.03595488  0.27784664     0.36620
C144        C  0.04550078  0.03466771  0.24190190    -0.05550
C145        C  0.04882148  0.99190169  0.20631312    -0.32520
C146        C  0.00930048  0.95083247  0.20629150     0.36530
H147        H  0.92974399  0.99613287  0.30641683     0.16900
O148        O  0.99876380  0.07564613  0.31478960    -0.60020
H149        H  0.08190203  0.99060568  0.17815539     0.16910
O150        O  0.01234180  0.91092532  0.16955892    -0.60120
H151        H  0.04270329  0.88692011  0.17960014     0.43910
H152        H  0.96878502  0.10002955  0.30454809     0.43870
C153        C  0.76857577  0.90154561  0.24695438    -0.05200
C154        C  0.75288742  0.94483924  0.21536114    -0.32630
C155        C  0.69923879  0.96366288  0.21591979     0.36620
C156        C  0.65970135  0.93875353  0.24783171    -0.05550
C157        C  0.67470585  0.89479853  0.27865314    -0.32520
C158        C  0.72874757  0.87643160  0.27881275     0.36530
H159        H  0.78237394  0.96421953  0.18987187     0.16900
O160        O  0.68578383  0.00616557  0.18468868    -0.60020
H161        H  0.64475666  0.87565313  0.30385033     0.16910
O162        O  0.74279999  0.83633088  0.31249525    -0.60120
H163        H  0.72638286  0.80243773  0.29923188     0.43910
H164        H  0.67259702  0.98896455  0.15299819     0.43870
C165        C  0.91301336  0.75615878  0.24426599    -0.05200
C166        C  0.89795782  0.72244941  0.28554353    -0.32630
C167        C  0.91683845  0.66869630  0.28769027     0.36620
C168        C  0.95089970  0.64817240  0.24811487    -0.05550
C169        C  0.96539912  0.68159183  0.20660573    -0.32520
C170        C  0.94620824  0.73509712  0.20422204     0.36530
H171        H  0.87281262  0.73834285  0.31677239     0.16900
O172        O  0.90315624  0.63705272  0.32924393    -0.60020
H173        H  0.99119015  0.66592328  0.17572438     0.16910
O174        O  0.96015144  0.76660960  0.16265952    -0.60120
H175        H  0.92912466  0.76342374  0.13935134     0.43910
H176        H  0.93364665  0.64132190  0.35303151     0.43870
C177        C  0.54899729  0.45195589  0.49930584    -0.05200
C178        C  0.50714387  0.45055469  0.03681118    -0.32630
C179        C  0.46667507  0.49066006  0.03853823     0.36620
C180        C  0.46780011  0.53313333  0.50243284    -0.05550
C181        C  0.50972990  0.53455942  0.46497197    -0.32520
C182        C  0.55019405  0.49447281  0.46325526     0.36530
H183        H  0.50625836  0.41861774  0.06537126     0.16900
O184        O  0.42760845  0.48943308  0.07694362    -0.60020
H185        H  0.51062370  0.56647830  0.43639076     0.16910
O186        O  0.58927996  0.49573587  0.42486820    -0.60120
H187        H  0.61371943  0.52624650  0.43366328     0.43910
H188        H  0.40328457  0.45877774  0.06829791     0.43870
C189        C  0.74539172  0.40082023  0.50669911    -0.05200
C190        C  0.75937075  0.44791892  0.03406722    -0.32630
C191        C  0.81263487  0.46773759  0.03292250     0.36620
C192        C  0.85376030  0.43946024  0.50556965    -0.05550
C193        C  0.84056053  0.39145680  0.47956071    -0.32520
C194        C  0.78684538  0.37234850  0.47945434     0.36530
H195        H  0.72873412  0.46989459  0.05631080     0.16900
O196        O  0.82435090  0.51390805  0.06004729    -0.60020
H197        H  0.87169492  0.36958238  0.45781318     0.16910
O198        O  0.77481742  0.32797912  0.44991894    -0.60120
H199        H  0.79043445  0.29624449  0.46782740     0.43910
H200        H  0.81419926  0.54459054  0.03757776     0.43870
C201        C  0.59996578  0.25530461  0.50696739    -0.05200
C202        C  0.55238724  0.24061851  0.03457042    -0.32630
C203        C  0.53262667  0.18729972  0.03353034     0.36620
C204        C  0.56135752  0.14682526  0.50593735    -0.05550
C205        C  0.60983497  0.16074369  0.47969510    -0.32520
C206        C  0.62894549  0.21452263  0.47954770     0.36530
H207        H  0.52997978  0.27074067  0.05689496     0.16900
O208        O  0.48600949  0.17483393  0.06096323    -0.60020
H209        H  0.63210760  0.13016549  0.45778650     0.16910
O210        O  0.67386490  0.22735102  0.44978803    -0.60120
H211        H  0.70519456  0.21124854  0.46754157     0.43910
H212        H  0.45577701  0.18568824  0.03874459     0.43870
C213        C  0.61685719  0.31356053  0.00523615     0.03400
C214        C  0.67177775  0.32894195  0.00868356    -0.12750
C215        C  0.68727340  0.38400214  0.00496589     0.00900
C216        C  0.64663271  0.42386508  0.50041023    -0.11280
C217        C  0.59165752  0.40943239  0.49932707     0.03390
C218        C  0.57716216  0.35437634  0.50075790    -0.10700
H219        H  0.70224704  0.29823534  0.01552133     0.08980
H220        H  0.65766125  0.46648051  0.49853287     0.06510
H221        H  0.53466528  0.34346650  0.49807330     0.06360
C222        C  0.89680519  0.81407577  0.74457808     0.03400
C223        C  0.84173690  0.82919895  0.74624408    -0.12750
C224        C  0.82673313  0.88452270  0.74688574     0.01060
C225        C  0.86782294  0.92430918  0.74576732    -0.11280
C226        C  0.92295521  0.90960063  0.74338183     0.03390
C227        C  0.93708033  0.85436764  0.74327165    -0.10700
H228        H  0.81090364  0.79782075  0.74556389     0.08980
H229        H  0.85692990  0.96705412  0.74650491     0.06510
H230        H  0.97952905  0.84253906  0.74318158     0.06360
C231        C  0.32949946  0.60068284  0.99554878     0.03400
C232        C  0.37010123  0.56097293  0.00094888    -0.12750
C233        C  0.42505072  0.57552864  0.00212899     0.00900
C234        C  0.43945941  0.63058598  0.00018024    -0.11280
C235        C  0.39977378  0.67120253  0.99502940     0.03390
C236        C  0.34476962  0.65585910  0.99266223    -0.10700
H237        H  0.35914201  0.51844975  0.00380993     0.08980
H238        H  0.48182871  0.64161897  0.00342432     0.06510
H239        H  0.31396292  0.68681113  0.98771908     0.06360
O240        O  0.51922769  0.03353687  0.67768613    -0.71510
O241        O  0.52076172  0.03606622  0.82284312    -0.71730
O242        O  0.59281072  0.00900820  0.74778575    -0.71590
O243        O  0.44705016  0.06043315  0.75202853    -0.71600
O244        O  0.41800116  0.97697150  0.75328353    -0.71560
O245        O  0.56372098  0.92561102  0.75224559    -0.71580
O246        O  0.49001732  0.95309608  0.82499017    -0.71520
O247        O  0.49169443  0.94944390  0.67972833    -0.71700
V248        V  0.51941090  0.03313614  0.75020709     1.35240
V249        V  0.49140621  0.95290795  0.75243698     1.35170
C250        C  0.50551028  0.99102769  0.65416925     0.77730
C251        C  0.50539117  0.99505264  0.84844348     0.77780
C252        C  0.60307367  0.95859518  0.74939869     0.77650
C253        C  0.40764418  0.02740753  0.75330981     0.77620
O254        O  0.46383684  0.00664046  0.57519278    -0.71510
O255        O  0.46401499  0.00985905  0.93000167    -0.71730
O256        O  0.43751428  0.93562402  0.50179857    -0.71590
O257        O  0.49044447  0.08075465  0.00403653    -0.71600
O258        O  0.57349888  0.05055598  0.50177159    -0.71560
O259        O  0.52061064  0.90551968  0.99750190    -0.71580
O260        O  0.54754139  0.98062059  0.92738943    -0.71520
O261        O  0.54659355  0.97528453  0.57257914    -0.71700
V262        V  0.46556890  0.00764800  0.50262436     1.35240
V263        V  0.54544843  0.97857203  0.99994656     1.35170
C264        C  0.50520020  0.99053223  0.59842156     0.77730
C265        C  0.50576030  0.99561198  0.90416796     0.77780
C266        C  0.47011298  0.89585174  0.99885868     0.77650
C267        C  0.54093975  0.09038718  0.00383750     0.77620
C268        C  0.18382306  0.10177621  0.75110784     0.03400
C269        C  0.14328608  0.06214531  0.74477570    -0.12750
C270        C  0.08839622  0.07694258  0.74261191     0.00900
C271        C  0.07421246  0.13212494  0.74348268    -0.11280
C272        C  0.11343894  0.17250869  0.75155540     0.03390
C273        C  0.16818490  0.15678099  0.75598089    -0.10700
H274        H  0.15421777  0.01949179  0.74218121     0.08980
H275        H  0.03221583  0.14335111  0.73793729     0.06510
H276        H  0.19841764  0.18730722  0.76414765     0.06360
O277        O  0.04812570  0.51329620  0.82237043    -0.71510
O278        O  0.04974823  0.50747493  0.67718913    -0.71730
O279        O  0.02212672  0.58280208  0.74718112    -0.71590
O280        O  0.07567616  0.43777567  0.75168861    -0.71600
O281        O  0.99275160  0.40746882  0.75205688    -0.71560
O282        O  0.93920534  0.55238056  0.75299313    -0.71580
O283        O  0.96579673  0.47967683  0.67951003    -0.71520
O284        O  0.96613352  0.48016327  0.82473172    -0.71700
V285        V  0.04732354  0.50976079  0.74974354     1.35240
V286        V  0.96759235  0.48049318  0.75217317     1.35170
C287        C  0.00707148  0.49709932  0.84808019     0.77730
C288        C  0.00779859  0.49331887  0.65381210     0.77780
C289        C  0.97159181  0.59214838  0.74966569     0.77650
C290        C  0.04326017  0.39785570  0.75238321     0.77620
O291        O  0.02171805  0.45455623  0.92736427    -0.71510
O292        O  0.02335576  0.45278581  0.57251318    -0.71730
O293        O  0.94999998  0.42727302  0.00184070    -0.71590
O294        O  0.09496337  0.48017818  0.49733002    -0.71600
O295        O  0.06495370  0.56331991  0.00112011    -0.71560
O296        O  0.91986863  0.51044465  0.50343057    -0.71580
O297        O  0.99198895  0.53560120  0.57455633    -0.71520
O298        O  0.99272808  0.53823573  0.92930214    -0.71700
V299        V  0.02195442  0.45532745  0.99987757     1.35240
V300        V  0.99293721  0.53528194  0.50198339     1.35170
C301        C  0.00725224  0.49674536  0.90380592     0.77730
C302        C  0.00763767  0.49381048  0.59806838     0.77780
C303        C  0.91021863  0.45990154  0.00352269     0.77650
C304        C  0.10470812  0.53069660  0.99852279     0.77620
C305        C  0.09703064  0.23093169  0.75476965    -0.05200
C306        C  0.12982350  0.27115839  0.73133000    -0.32630
C307        C  0.11377334  0.32593878  0.73159273     0.36620
C308        C  0.06334444  0.34117084  0.75406883    -0.05550
C309        C  0.03109960  0.30136755  0.77833001    -0.32520
C310        C  0.04800430  0.24709615  0.77988042     0.36530
H311        H  0.16751350  0.26006254  0.71164376     0.16900
O312        O  0.14637683  0.36371851  0.70743477    -0.60020
H313        H  0.99283363  0.31253318  0.79699120     0.16910
O314        O  0.01633336  0.21044171  0.80660333    -0.60120
H315        H  0.03330288  0.20708777  0.84044389     0.43910
H316        H  0.17328576  0.37450397  0.73316249     0.43870
C317        C  0.24201436  0.08495785  0.75363092    -0.05200
C318        C  0.25565164  0.03710612  0.77994127    -0.32630
C319        C  0.30918732  0.01781380  0.77981870     0.36620
C320        C  0.35087462  0.04728100  0.75452545    -0.05550
C321        C  0.33786776  0.09590829  0.72951804    -0.32520
C322        C  0.28399027  0.11456455  0.72842562     0.36530
H323        H  0.22460736  0.01420377  0.80064367     0.16900
O324        O  0.32056154  0.97093423  0.80592844    -0.60020
H325        H  0.36935560  0.11871592  0.70928180     0.16910
O326        O  0.27243790  0.15973793  0.69985300    -0.60120
H327        H  0.28753030  0.19097881  0.71890319     0.43910
H328        H  0.31152755  0.94087254  0.78226743     0.43870
C329        C  0.45006757  0.83933505  0.99643348    -0.05200
C330        C  0.47889751  0.80117684  0.96644331    -0.32630
C331        C  0.46196825  0.74686444  0.96419585     0.36620
C332        C  0.41601386  0.72952634  0.99327525    -0.05550
C333        C  0.38650355  0.76816030  0.52247846    -0.32520
C334        C  0.40283800  0.82276464  0.52372443     0.36530
H335        H  0.51443537  0.81365321  0.94407557     0.16900
O336        O  0.48916274  0.71156665  0.93177592    -0.60020
H337        H  0.35136518  0.75578361  0.54542159     0.16910
O338        O  0.37405902  0.85892875  0.55390020    -0.60120
H339        H  0.34368889  0.87140397  0.53259959     0.43910
H340        H  0.52586317  0.70706547  0.94607883     0.43870
C341        C  0.16129701  0.55067412  0.99632951    -0.05200
C342        C  0.20052062  0.52151002  0.96772307    -0.32630
C343        C  0.25489716  0.53824567  0.96569113     0.36620
C344        C  0.27127534  0.58432930  0.99374852    -0.05550
C345        C  0.23156516  0.61412178  0.52160482    -0.32520
C346        C  0.17690263  0.59805253  0.52248116     0.36530
H347        H  0.18884657  0.48586706  0.94616882     0.16900
O348        O  0.29119233  0.51080810  0.93427777    -0.60020
H349        H  0.24307566  0.64937508  0.54374762     0.16910
O350        O  0.13966081  0.62733964  0.55116374    -0.60120
H351        H  0.12835883  0.65757958  0.52868399     0.43910
H352        H  0.29452607  0.47388990  0.94923714     0.43870
C353        C  0.96562121  0.95219118  0.74231403    -0.05200
C354        C  0.96247414  0.99493952  0.77788626    -0.32630
C355        C  0.00180568  0.03595724  0.77784609     0.36620
C356        C  0.04550153  0.03466904  0.74190241    -0.05550
C357        C  0.04882264  0.99190269  0.70631408    -0.32520
C358        C  0.00930116  0.95083399  0.70629196     0.36530
H359        H  0.92974251  0.99613639  0.80641501     0.16900
O360        O  0.99876307  0.07564903  0.81478852    -0.60020
H361        H  0.08190387  0.99060601  0.67815708     0.16910
O362        O  0.01234292  0.91092638  0.66955983    -0.60120
H363        H  0.04270389  0.88692096  0.67960192     0.43910
H364        H  0.96878488  0.10003266  0.80454599     0.43870
C365        C  0.76857599  0.90154595  0.74694903    -0.05200
C366        C  0.75288797  0.94483914  0.71535506    -0.32630
C367        C  0.69923921  0.96366251  0.71591268     0.36620
C368        C  0.65970137  0.93875324  0.74782419    -0.05550
C369        C  0.67470555  0.89479853  0.77864614    -0.32520
C370        C  0.72874732  0.87643192  0.77880683     0.36530
H371        H  0.78237491  0.96421948  0.68986627     0.16900
O372        O  0.68578467  0.00616514  0.68468135    -0.60020
H373        H  0.64475613  0.87565334  0.80384323     0.16910
O374        O  0.74279930  0.83633174  0.81249006    -0.60120
H375        H  0.72638282  0.80243828  0.79922668     0.43910
H376        H  0.67259842  0.98896406  0.65299067     0.43870
C377        C  0.91301599  0.75616082  0.74426678    -0.05200
C378        C  0.89795096  0.72244867  0.78553949    -0.32630
C379        C  0.91683231  0.66869586  0.78768779     0.36620
C380        C  0.95090432  0.64817507  0.74811894    -0.05550
C381        C  0.96541326  0.68159734  0.70661457    -0.32520
C382        C  0.94622134  0.73510203  0.70422897     0.36530
H383        H  0.87279761  0.73833967  0.81676374     0.16900
O384        O  0.90314021  0.63704968  0.82923702    -0.60020
H385        H  0.99121207  0.66593120  0.67573779     0.16910
O386        O  0.96017348  0.76661660  0.66267030    -0.60120
H387        H  0.92915235  0.76343119  0.63935550     0.43910
H388        H  0.93362423  0.64131817  0.85303186     0.43870
C389        C  0.54902674  0.45195285  0.99930208    -0.05200
C390        C  0.50710808  0.45055347  0.53680861    -0.32630
C391        C  0.46663775  0.49065750  0.53853244     0.36620
C392        C  0.46783267  0.53313285  0.00243552    -0.05550
C393        C  0.50975647  0.53455508  0.96496860    -0.32520
C394        C  0.55021914  0.49446698  0.96324862     0.36530
H395        H  0.50621865  0.41861418  0.56536634     0.16900
O396        O  0.42756506  0.48942637  0.57693225    -0.60020
H397        H  0.51064630  0.56647169  0.93638514     0.16910
O398        O  0.58929908  0.49572579  0.92485607    -0.60120
H399        H  0.61374168  0.52623564  0.93364603     0.43910
H400        H  0.40324387  0.45877073  0.56828103     0.43870
C401        C  0.74542038  0.40081930  0.00669404    -0.05200
C402        C  0.75934510  0.44791321  0.53408055    -0.32630
C403        C  0.81261021  0.46772952  0.53293724     0.36620
C404        C  0.85378771  0.43946364  0.00556319    -0.05550
C405        C  0.84059112  0.39145382  0.97956285    -0.32520
C406        C  0.78687673  0.37234328  0.97945705     0.36530
H407        H  0.72871007  0.46988527  0.55632942     0.16900
O408        O  0.82433013  0.51389280  0.56007115    -0.60020
H409        H  0.87172764  0.36957538  0.95782176     0.16910
O410        O  0.77485252  0.32796672  0.94992968    -0.60120
H411        H  0.79047021  0.29623690  0.96784502     0.43910
H412        H  0.81417710  0.54458130  0.53760939     0.43870
C413        C  0.59999301  0.25530205  0.00697154    -0.05200
C414        C  0.55236192  0.24061840  0.53456769    -0.32630
C415        C  0.53260493  0.18729831  0.53352864     0.36620
C416        C  0.56137751  0.14682508  0.00593971    -0.05550
C417        C  0.60985761  0.16074042  0.97970019    -0.32520
C418        C  0.62897180  0.21451805  0.97955378     0.36530
H419        H  0.52995366  0.27073923  0.55689316     0.16900
O420        O  0.48598973  0.17482964  0.56096339    -0.60020
H421        H  0.63212959  0.13016084  0.95779277     0.16910
O422        O  0.67389391  0.22734322  0.94979653    -0.60120
H423        H  0.70522146  0.21124036  0.96755300     0.43910
H424        H  0.45575550  0.18568234  0.53874615     0.43870
loop_ 
_geom_bond_atom_site_label_1 
_geom_bond_atom_site_label_2 
_geom_bond_distance 
_geom_bond_site_symmetry_2 
_ccdc_geom_bond_type 
C1            C2   1.408       .  A
C1          C218   1.405       .  A
C1          C201   1.491       .  S
C2            C3   1.409       .  A
C2            H7   1.081       .  S
C3          C216   1.406       .  A
C3          C189   1.491       .  S
C4            C5   1.400   1_554  A
C4          C215   1.406       .  A
C4            H8   1.083   1_554  S
C5            C6   1.400   1_556  A
C5          C389   1.480       .  S
C6          C213   1.405       .  A
C6            H9   1.084   1_554  S
C10          C11   1.404       .  A
C10          C15   1.401       .  A
C10         C165   1.477       .  S
C11          C12   1.408       .  A
C11          H16   1.083       .  S
C12          C13   1.407       .  A
C12         C153   1.490       .  S
C13          C14   1.403       .  A
C13          H17   1.084       .  S
C14          C15   1.400       .  A
C14         C141   1.483       .  S
C15          H18   1.084       .  S
C19          C20   1.405       .  A
C19          C24   1.409       .  A
C19         C132   1.490       .  S
C20          C21   1.400       .  A
C20          H25   1.081       .  S
C21          C22   1.399       .  A
C21         C180   1.480       .  S
C22          C23   1.404       .  A
C22          H26   1.083       .  S
C23          C24   1.408       .  A
C23         C120   1.488       .  S
C24          H27   1.083       .  S
O28          V36   1.897       .  S
O28          C38   1.262   1_545  A
O29          V36   1.902       .  S
O29          C39   1.263   1_545  A
O30          V36   1.899       .  S
O30          C40   1.265   1_545  A
O31          V36   1.901       .  S
O31          C41   1.265       .  A
O32          V37   1.899       .  S
O32          C41   1.265   1_565  A
O33          V37   1.900       .  S
O33          C40   1.264       .  A
O34          V37   1.897       .  S
O34          C39   1.262       .  A
O35          V37   1.903       .  S
O35          C38   1.264       .  A
V36          V37   2.089   1_545  T
C38          C52   1.458       .  S
C39          C53   1.457       .  S
C40         C156   1.475       .  S
C41         C108   1.478       .  S
O42          V50   1.897       .  S
O42          C52   1.262   1_545  A
O43         V262   1.901       .  S
O43          C53   1.263   1_545  A
O44          V50   1.900   1_565  S
O44         C266   1.264   1_554  A
O45         V262   1.899       .  S
O45          C55   1.265       .  A
O46         V263   1.900   1_544  S
O46         C267   1.264       .  A
O47          V51   1.898       .  S
O47          C54   1.265       .  A
O48          V51   1.897       .  S
O48          C53   1.262       .  A
O49         V263   1.902   1_554  S
O49          C52   1.264       .  A
V50         O255   1.901   1_554  S
V50         O257   1.899       .  S
V50         V263   2.089   1_544  T
V51         O258   1.900   1_565  S
V51         O261   1.902       .  S
V51         V262   2.089   1_565  T
C54         C117   1.476       .  S
C54         O256   1.264       .  A
C55         C204   1.477       .  S
C55         O258   1.264       .  A
C56          C57   1.407       .  A
C56          C61   1.409       .  A
C56         C105   1.493       .  S
C57          C58   1.401       .  A
C57          H62   1.083       .  S
C58          C59   1.400       .  A
C58         C144   1.482       .  S
C59          C60   1.404       .  A
C59          H63   1.082       .  S
C60          C61   1.408       .  A
C60          C93   1.492       .  S
C61          H64   1.082       .  S
O65          V73   1.902       .  S
O65          C75   1.264       .  A
O66          V73   1.897       .  S
O66          C76   1.262       .  A
O67          V73   1.900       .  S
O67          C77   1.264   1_455  A
O68          V73   1.902       .  S
O68          C78   1.265       .  A
O69          V74   1.897       .  S
O69          C78   1.265   1_655  A
O70          V74   1.898       .  S
O70          C77   1.263       .  A
O71          V74   1.902       .  S
O71          C76   1.264   1_655  A
O72          V74   1.897       .  S
O72          C75   1.262   1_655  A
V73          V74   2.089   1_455  T
C75          C89   1.457       .  S
C76          C90   1.458       .  S
C77         C168   1.468       .  S
C78          C96   1.478       .  S
O79          V87   1.896       .  S
O79          C89   1.262       .  A
O80         V299   1.902   1_554  S
O80          C90   1.263       .  A
O81          V87   1.900   1_655  S
O81          C91   1.264       .  A
O82         V299   1.898       .  S
O82         C304   1.265       .  A
O83         V300   1.900   1_455  S
O83          C92   1.264       .  A
O84          V88   1.898       .  S
O84         C303   1.265       .  A
O85          V88   1.897       .  S
O85          C90   1.262   1_655  A
O86         V300   1.902       .  S
O86          C89   1.263   1_655  A
V87         O292   1.902       .  S
V87         O294   1.898       .  S
V87         V300   2.089   1_455  T
V88         O295   1.900   1_655  S
V88         O298   1.902   1_554  S
V88         V299   2.089   1_654  T
C91         C192   1.476       .  S
C91         O296   1.265       .  A
C92         C129   1.476       .  S
C92         O294   1.265       .  A
C93          C94   1.407       .  A
C93          C98   1.414       .  A
C94          C95   1.402       .  A
C94          H99   1.083       .  S
C95          C96   1.409       .  A
C95         O100   1.371       .  S
C96          C97   1.402       .  A
C97          C98   1.397       .  A
C97         H101   1.084   1_455  S
C98         O102   1.372       .  S
O100        H104   0.992       .  S
O102        H103   0.992       .  S
C105        C106   1.408       .  A
C105        C110   1.413       .  A
C106        C107   1.399       .  A
C106        H111   1.083       .  S
C107        C108   1.407       .  A
C107        O112   1.372   1_545  S
C108        C109   1.403       .  A
C109        C110   1.403       .  A
C109        H113   1.084       .  S
C110        O114   1.372       .  S
O112        H116   0.992       .  S
O114        H115   0.992       .  S
C117        C118   1.402       .  A
C117        C334   1.408       .  A
C118        C119   1.400       .  A
C118        H123   1.084       .  S
C119        C120   1.412       .  A
C119        O124   1.373       .  S
C120        C333   1.406       .  A
C121        C122   1.401       .  A
C121        C332   1.406   1_554  A
C121        H125   1.083       .  S
C122        C329   1.408   1_554  A
C122        O126   1.371       .  S
O124        H128   0.992       .  S
O126        H127   0.992       .  S
C129        C130   1.401       .  A
C129        C346   1.408       .  A
C130        C131   1.400       .  A
C130        H135   1.084       .  S
C131        C132   1.413       .  A
C131        O136   1.373       .  S
C132        C345   1.407       .  A
C133        C134   1.402       .  A
C133        C344   1.407   1_554  A
C133        H137   1.083       .  S
C134        C341   1.408   1_554  A
C134        O138   1.371       .  S
O136        H140   0.992       .  S
O138        H139   0.992       .  S
C141        C142   1.403       .  A
C141        C146   1.411   1_655  A
C142        C143   1.398   1_665  A
C142        H147   1.084       .  S
C143        C144   1.410       .  A
C143        O148   1.372   1_455  S
C144        C145   1.404   1_545  A
C145        C146   1.402       .  A
C145        H149   1.084       .  S
C146        O150   1.372       .  S
O148        H152   0.992       .  S
O150        H151   0.992       .  S
C153        C154   1.407       .  A
C153        C158   1.412       .  A
C154        C155   1.398       .  A
C154        H159   1.083       .  S
C155        C156   1.406       .  A
C155        O160   1.372   1_565  S
C156        C157   1.403       .  A
C157        C158   1.404       .  A
C157        H161   1.084       .  S
C158        O162   1.372       .  S
O160        H164   0.992   1_545  S
O162        H163   0.992       .  S
C165        C166   1.404       .  A
C165        C170   1.409       .  A
C166        C167   1.401       .  A
C166        H171   1.084       .  S
C167        C168   1.407       .  A
C167        O172   1.372       .  S
C168        C169   1.401       .  A
C169        C170   1.398       .  A
C169        H173   1.084       .  S
C170        O174   1.372       .  S
O172        H176   0.992       .  S
O174        H175   0.992       .  S
C177        C182   1.408       .  A
C177        C390   1.404       .  A
C177        C217   1.480       .  S
C178        C179   1.400       .  A
C178        C389   1.404   1_554  A
C178        H183   1.084       .  S
C179        C392   1.408       .  A
C179        O184   1.372       .  S
C180        C181   1.404       .  A
C180        C391   1.408       .  A
C181        C182   1.399       .  A
C181        H185   1.084       .  S
C182        O186   1.372       .  S
O184        H188   0.992       .  S
O186        H187   0.992       .  S
C189        C194   1.413       .  A
C189        C402   1.407       .  A
C190        C191   1.398       .  A
C190        C401   1.407       .  A
C190        H195   1.083       .  S
C191        C404   1.407       .  A
C191        O196   1.372       .  S
C192        C193   1.403       .  A
C192        C403   1.407       .  A
C193        C194   1.403       .  A
C193        H197   1.084       .  S
C194        O198   1.372       .  S
O196        H200   0.992       .  S
O198        H199   0.992       .  S
C201        C206   1.413       .  A
C201        C414   1.407       .  A
C202        C203   1.398       .  A
C202        C413   1.407       .  A
C202        H207   1.083       .  S
C203        C416   1.407       .  A
C203        O208   1.372       .  S
C204        C205   1.403       .  A
C204        C415   1.407       .  A
C205        C206   1.403       .  A
C205        H209   1.084       .  S
C206        O210   1.372       .  S
O208        H212   0.992       .  S
O210        H211   0.992       .  S
C213        C214   1.408       .  A
C213        C413   1.491       .  S
C214        C215   1.409       .  A
C214        H219   1.081       .  S
C215        C401   1.491       .  S
C216        C217   1.400       .  A
C216        H220   1.083       .  S
C217        C218   1.400       .  A
C218        H221   1.084       .  S
C222        C223   1.404       .  A
C222        C227   1.401       .  A
C222        C377   1.477       .  S
C223        C224   1.408       .  A
C223        H228   1.083       .  S
C224        C225   1.407       .  A
C224        C365   1.490       .  S
C225        C226   1.403       .  A
C225        H229   1.084       .  S
C226        C227   1.400       .  A
C226        C353   1.483       .  S
C227        H230   1.084       .  S
C231        C232   1.405   1_556  A
C231        C236   1.409       .  A
C231        C344   1.490       .  S
C232        C233   1.400       .  A
C232        H237   1.081       .  S
C233        C234   1.399       .  A
C233        C392   1.480       .  S
C234        C235   1.404   1_554  A
C234        H238   1.083       .  S
C235        C236   1.408       .  A
C235        C332   1.488       .  S
C236        H239   1.083       .  S
O240        V248   1.897       .  S
O240        C250   1.262   1_545  A
O241        V248   1.902       .  S
O241        C251   1.263   1_545  A
O242        V248   1.899       .  S
O242        C252   1.265   1_545  A
O243        V248   1.901       .  S
O243        C253   1.265       .  A
O244        V249   1.899       .  S
O244        C253   1.265   1_565  A
O245        V249   1.900       .  S
O245        C252   1.264       .  A
O246        V249   1.897       .  S
O246        C251   1.262       .  A
O247        V249   1.903       .  S
O247        C250   1.264       .  A
V248        V249   2.089   1_545  T
C250        C264   1.458       .  S
C251        C265   1.457       .  S
C252        C368   1.475       .  S
C253        C320   1.478       .  S
O254        V262   1.897       .  S
O254        C264   1.262   1_545  A
O255        C265   1.263   1_545  A
O256        V262   1.900   1_565  S
O257        C267   1.265       .  A
O259        V263   1.898       .  S
O259        C266   1.265       .  A
O260        V263   1.897       .  S
O260        C265   1.262       .  A
O261        C264   1.264       .  A
C266        C329   1.476       .  S
C267        C416   1.477       .  S
C268        C269   1.407       .  A
C268        C273   1.409       .  A
C268        C317   1.493       .  S
C269        C270   1.401       .  A
C269        H274   1.083       .  S
C270        C271   1.400       .  A
C270        C356   1.482       .  S
C271        C272   1.404       .  A
C271        H275   1.082       .  S
C272        C273   1.408       .  A
C272        C305   1.492       .  S
C273        H276   1.082       .  S
O277        V285   1.902       .  S
O277        C287   1.264       .  A
O278        V285   1.897       .  S
O278        C288   1.262       .  A
O279        V285   1.900       .  S
O279        C289   1.264   1_455  A
O280        V285   1.902       .  S
O280        C290   1.265       .  A
O281        V286   1.897       .  S
O281        C290   1.265   1_655  A
O282        V286   1.898       .  S
O282        C289   1.263       .  A
O283        V286   1.902       .  S
O283        C288   1.264   1_655  A
O284        V286   1.897       .  S
O284        C287   1.262   1_655  A
V285        V286   2.089   1_455  T
C287        C301   1.457       .  S
C288        C302   1.458       .  S
C289        C380   1.468       .  S
C290        C308   1.478       .  S
O291        V299   1.896       .  S
O291        C301   1.262       .  A
O292        C302   1.263       .  A
O293        V299   1.900   1_654  S
O293        C303   1.264       .  A
O295        C304   1.264   1_554  A
O296        V300   1.898       .  S
O297        V300   1.897       .  S
O297        C302   1.262   1_655  A
O298        C301   1.263   1_655  A
C303        C404   1.476       .  S
C304        C341   1.476       .  S
C305        C306   1.407       .  A
C305        C310   1.414       .  A
C306        C307   1.402       .  A
C306        H311   1.083       .  S
C307        C308   1.409       .  A
C307        O312   1.371       .  S
C308        C309   1.402       .  A
C309        C310   1.397       .  A
C309        H313   1.084   1_455  S
C310        O314   1.372       .  S
O312        H316   0.992       .  S
O314        H315   0.992       .  S
C317        C318   1.408       .  A
C317        C322   1.413       .  A
C318        C319   1.399       .  A
C318        H323   1.083       .  S
C319        C320   1.407       .  A
C319        O324   1.372   1_545  S
C320        C321   1.403       .  A
C321        C322   1.403       .  A
C321        H325   1.084       .  S
C322        O326   1.372       .  S
O324        H328   0.992       .  S
O326        H327   0.992       .  S
C329        C330   1.402       .  A
C330        C331   1.400       .  A
C330        H335   1.084       .  S
C331        C332   1.412       .  A
C331        O336   1.373       .  S
C333        C334   1.401       .  A
C333        H337   1.083       .  S
C334        O338   1.371       .  S
O336        H340   0.992       .  S
O338        H339   0.992       .  S
C341        C342   1.401       .  A
C342        C343   1.400       .  A
C342        H347   1.084       .  S
C343        C344   1.413       .  A
C343        O348   1.373       .  S
C345        C346   1.402       .  A
C345        H349   1.083       .  S
C346        O350   1.371       .  S
O348        H352   0.992       .  S
O350        H351   0.992       .  S
C353        C354   1.403       .  A
C353        C358   1.411   1_655  A
C354        C355   1.398   1_665  A
C354        H359   1.084       .  S
C355        C356   1.410       .  A
C355        O360   1.372   1_455  S
C356        C357   1.404   1_545  A
C357        C358   1.402       .  A
C357        H361   1.084       .  S
C358        O362   1.372       .  S
O360        H364   0.992       .  S
O362        H363   0.992       .  S
C365        C366   1.407       .  A
C365        C370   1.412       .  A
C366        C367   1.398       .  A
C366        H371   1.083       .  S
C367        C368   1.406       .  A
C367        O372   1.372   1_565  S
C368        C369   1.403       .  A
C369        C370   1.404       .  A
C369        H373   1.084       .  S
C370        O374   1.372       .  S
O372        H376   0.992   1_545  S
O374        H375   0.992       .  S
C377        C378   1.404       .  A
C377        C382   1.409       .  A
C378        C379   1.401       .  A
C378        H383   1.084       .  S
C379        C380   1.407       .  A
C379        O384   1.372       .  S
C380        C381   1.401       .  A
C381        C382   1.398       .  A
C381        H385   1.084       .  S
C382        O386   1.372       .  S
O384        H388   0.992       .  S
O386        H387   0.992       .  S
C389        C394   1.408       .  A
C390        C391   1.400       .  A
C390        H395   1.084       .  S
C391        O396   1.372       .  S
C392        C393   1.404   1_554  A
C393        C394   1.399       .  A
C393        H397   1.084       .  S
C394        O398   1.372       .  S
O396        H400   0.992       .  S
O398        H399   0.992       .  S
C401        C406   1.413   1_554  A
C402        C403   1.398       .  A
C402        H407   1.083       .  S
C403        O408   1.372       .  S
C404        C405   1.403   1_554  A
C405        C406   1.403       .  A
C405        H409   1.084       .  S
C406        O410   1.372       .  S
O408        H412   0.992       .  S
O410        H411   0.992       .  S
C413        C418   1.413   1_554  A
C414        C415   1.398       .  A
C414        H419   1.083       .  S
C415        O420   1.372       .  S
C416        C417   1.403   1_554  A
C417        C418   1.403       .  A
C417        H421   1.084       .  S
C418        O422   1.372       .  S
O420        H424   0.992       .  S
O422        H423   0.992       .  S
