geometry optimzed in LAMMPS
_audit_creation_date              2020-12-01 
_audit_creation_method            'lammps2cif' 
_symmetry_space_group_name_H-M    'P1' 
_symmetry_Int_Tables_number       1 
_symmetry_cell_setting            triclinic 
loop_ 
_symmetry_equiv_pos_as_xyz 
  x,y,z 
_cell_length_a                    65.14459174 
_cell_length_b                    65.07516564026598 
_cell_length_c                    65.07472816836379 
_cell_angle_alpha                 89.99841292469998 
_cell_angle_beta                  90.02157447192744 
_cell_angle_gamma                 89.99681941657995 
loop_ 
_atom_site_label 
_atom_site_type_symbol 
_atom_site_fract_x 
_atom_site_fract_y 
_atom_site_fract_z 
_atom_site_charge 
N1          N  0.50033158  0.79909175  0.64177760    -0.25200
N2          N  0.50078458  0.81880266  0.63684671    -0.33000
C3          C  0.50105276  0.82064049  0.61628547     0.03200
C4          C  0.50075720  0.80118178  0.60794210     0.09200
C5          C  0.50030186  0.78781321  0.62441689    -0.03900
H6          H  0.50136802  0.83508577  0.60805704     0.09900
H7          H  0.49991519  0.77120040  0.62387236     0.11100
Cu8        Cu  0.50084448  0.84240425  0.65813646     0.44200
Cu9        Cu  0.49966992  0.78885538  0.67197018     0.42000
Cu10       Cu  0.49948834  0.82870436  0.71170451     0.43900
N11         N  0.50060834  0.86376549  0.68167256    -0.32600
N12         N  0.50007739  0.85888698  0.70139460    -0.26800
C13         C  0.49995221  0.87628224  0.71262226    -0.02900
C14         C  0.50043063  0.89272433  0.69920941     0.09300
C15         C  0.50083684  0.88432311  0.67977676     0.03100
H16         H  0.49950075  0.87687310  0.72923153     0.10700
H17         H  0.50121087  0.89250995  0.66530923     0.09800
N18         N  0.49919679  0.79736234  0.71768608    -0.34000
N19         N  0.49927316  0.78295781  0.70331394    -0.26200
C20         C  0.49916292  0.76438281  0.71239471    -0.01400
C21         C  0.49900410  0.76732168  0.73337829     0.07200
C22         C  0.49903191  0.78831457  0.73627894     0.05300
H23         H  0.49924540  0.74986156  0.70429781     0.10400
H24         H  0.49899348  0.79643875  0.75078510     0.09200
N25         N  0.50120163  0.63159414  0.81007601    -0.25200
N26         N  0.50168113  0.62682006  0.82982609    -0.33000
C27         C  0.50208051  0.60627640  0.83183173     0.03200
C28         C  0.50184373  0.59777136  0.81244369     0.09200
C29         C  0.50128402  0.61413873  0.79894071    -0.03900
H30         H  0.50240763  0.59816833  0.84634496     0.09900
H31         H  0.50087057  0.61345543  0.78233363     0.11100
Cu32       Cu  0.50149684  0.64827414  0.85327015     0.44200
Cu33       Cu  0.50028231  0.66171852  0.79959853     0.42000
Cu34       Cu  0.49961309  0.70169686  0.83921866     0.43900
N35         N  0.50089007  0.67193582  0.87447461    -0.32600
N36         N  0.50016524  0.69161770  0.86946571    -0.26800
C37         C  0.49986428  0.70295943  0.88678396    -0.02900
C38         C  0.50042992  0.68965733  0.90331168     0.09300
C39         C  0.50106999  0.67017632  0.89504231     0.03100
H40         H  0.49926356  0.71956778  0.88726357     0.10700
H41         H  0.50159897  0.65576848  0.90332536     0.09800
N42         N  0.49935571  0.70748310  0.80785433    -0.34000
N43         N  0.49959955  0.69304265  0.79351949    -0.26200
C44         C  0.49945766  0.70204509  0.77490258    -0.01400
C45         C  0.49910511  0.72304358  0.77775206     0.07200
C46         C  0.49905069  0.72603220  0.79872761     0.05300
H47         H  0.49965878  0.69388853  0.76041603     0.10400
H48         H  0.49886736  0.74057177  0.80678992     0.09200
N49         N  0.80505017  0.63161064  0.50719293    -0.25200
N50         N  0.82477808  0.62681481  0.50692356    -0.33000
C51         C  0.82675339  0.60625826  0.50676156     0.03200
C52         C  0.80736705  0.59777341  0.50692971     0.09200
C53         C  0.79390433  0.61416898  0.50720369    -0.03900
H54         H  0.84124073  0.59812789  0.50653785     0.09900
H55         H  0.77730998  0.61351479  0.50739620     0.11100
Cu56       Cu  0.84819911  0.64831603  0.50678901     0.44200
Cu57       Cu  0.79459993  0.66175472  0.50751321     0.42000
Cu58       Cu  0.83414422  0.70182396  0.50747627     0.43900
N59         N  0.86938491  0.67202482  0.50684267    -0.32600
N60         N  0.86438053  0.69172079  0.50711594    -0.26800
C61         C  0.88168669  0.70306662  0.50710797    -0.02900
C62         C  0.89820790  0.68975957  0.50681428     0.09300
C63         C  0.88993547  0.67026843  0.50665361     0.03100
H64         H  0.88216409  0.71968470  0.50730905     0.10700
H65         H  0.89820974  0.65585266  0.50643209     0.09800
N66         N  0.80278010  0.70755553  0.50764719    -0.34000
N67         N  0.78849072  0.69308130  0.50766104    -0.26200
C68         C  0.76987232  0.70204082  0.50772471    -0.01400
C69         C  0.77266364  0.72304817  0.50775469     0.07200
C70         C  0.79361356  0.72608661  0.50770095     0.05300
H71         H  0.75542123  0.69384642  0.50771979     0.10400
H72         H  0.80163040  0.74064764  0.50767359     0.09200
N73         N  0.63676557  0.79918210  0.50630573    -0.25200
N74         N  0.63191153  0.81891078  0.50580244    -0.33000
C75         C  0.61138317  0.82082910  0.50548442     0.03200
C76         C  0.60298073  0.80140622  0.50579826     0.09200
C77         C  0.61938128  0.78797212  0.50632116    -0.03900
H78         H  0.60321942  0.83530443  0.50508159     0.09900
H79         H  0.61877166  0.77136144  0.50669839     0.11100
Cu80       Cu  0.65322053  0.84245122  0.50564804     0.44200
Cu81       Cu  0.66688188  0.78880816  0.50693161     0.42000
Cu82       Cu  0.70663556  0.82862678  0.50676672     0.43900
N83         N  0.67675102  0.86376948  0.50583536    -0.32600
N84         N  0.69644265  0.85884922  0.50626097    -0.26800
C85         C  0.70769260  0.87622366  0.50636451    -0.02900
C86         C  0.69431886  0.89269282  0.50598477     0.09300
C87         C  0.67489181  0.88432868  0.50565859     0.03100
H88         H  0.72428792  0.87678239  0.50672947     0.10700
H89         H  0.66045248  0.89254193  0.50536122     0.09800
N90         N  0.71255808  0.79727498  0.50720019    -0.34000
N91         N  0.69819338  0.78287783  0.50726837    -0.26200
C92         C  0.70726065  0.76429873  0.50749485    -0.01400
C93         C  0.72822659  0.76723113  0.50757611     0.07200
C94         C  0.73112674  0.78822108  0.50738351     0.05300
H95         H  0.69916783  0.74978008  0.50755130     0.10400
H96         H  0.74561952  0.79634106  0.50733767     0.09200
N97         N  0.86511629  0.49512841  0.70290586    -0.25200
N98         N  0.87001763  0.49520020  0.68318450    -0.33000
C99         C  0.89055890  0.49524418  0.68132498     0.03200
C100        C  0.89893274  0.49519773  0.70077605     0.09200
C101        C  0.88248199  0.49512406  0.71416614    -0.03900
H102        H  0.89875712  0.49530370  0.66686742     0.09900
H103        H  0.88304700  0.49507211  0.73078294     0.11100
Cu104      Cu  0.84870566  0.49522937  0.65958848     0.44200
Cu105      Cu  0.83493397  0.49505205  0.71316075     0.42000
Cu106      Cu  0.79516021  0.49511952  0.67331284     0.43900
N107        N  0.82515834  0.49522461  0.63822296    -0.32600
N108        N  0.80545479  0.49518433  0.64311839    -0.26800
C109        C  0.79421554  0.49518556  0.62573202    -0.02900
C110        C  0.80759318  0.49522854  0.60927076     0.09300
C111        C  0.82702457  0.49525185  0.61765773     0.03100
H112        H  0.77761682  0.49515281  0.62515974     0.10700
H113        H  0.84146958  0.49528165  0.60945517     0.09800
N114        N  0.78923115  0.49505867  0.70467203    -0.34000
N115        N  0.80360459  0.49503305  0.71906867    -0.26200
C116        C  0.79454625  0.49500571  0.73764980    -0.01400
C117        C  0.77357858  0.49501337  0.73472458     0.07200
C118        C  0.77066543  0.49504754  0.71373224     0.05300
H119        H  0.80264788  0.49498704  0.75216707     0.10400
H120        H  0.75616714  0.49506795  0.70561602     0.09200
N121        N  0.63778048  0.49518941  0.81081556    -0.25200
N122        N  0.63287420  0.49526320  0.83053416    -0.33000
C123        C  0.61233798  0.49530003  0.83239358     0.03200
C124        C  0.60398606  0.49524733  0.81294021     0.09200
C125        C  0.62042629  0.49517724  0.79955122    -0.03900
H126        H  0.60413440  0.49535527  0.84684842     0.09900
H127        H  0.61986390  0.49511802  0.78293431     0.11100
Cu128      Cu  0.65415349  0.49529460  0.85411566     0.44200
Cu129      Cu  0.66793032  0.49510681  0.80054917     0.42000
Cu130      Cu  0.70765659  0.49515775  0.84042132     0.43900
N131        N  0.67765880  0.49527356  0.87547876    -0.32600
N132        N  0.69736871  0.49522232  0.87061762    -0.26800
C133        C  0.70857210  0.49520750  0.88802959    -0.02900
C134        C  0.69514874  0.49525154  0.90445848     0.09300
C135        C  0.67574356  0.49529233  0.89603204     0.03100
H136        H  0.72516963  0.49516177  0.88864055     0.10700
H137        H  0.66127925  0.49532643  0.90420020     0.09800
N138        N  0.71360471  0.49508444  0.80906829    -0.34000
N139        N  0.69924447  0.49506419  0.79466001    -0.26200
C140        C  0.70831432  0.49502610  0.77608605    -0.01400
C141        C  0.72927871  0.49502160  0.77902895     0.07200
C142        C  0.73217622  0.49505937  0.80002320     0.05300
H143        H  0.70022299  0.49501048  0.76156294     0.10400
H144        H  0.74666782  0.49507458  0.80815133     0.09200
N145        N  0.80480674  0.85880571  0.00595450    -0.25200
N146        N  0.82455640  0.86347469  0.00639375    -0.33000
C147        C  0.82668428  0.88400983  0.00651672     0.03200
C148        C  0.80736808  0.89263135  0.00614353     0.09200
C149        C  0.79378281  0.87632937  0.00579032    -0.03900
H150        H  0.84122978  0.89203176  0.00682270     0.09900
H151        H  0.77719663  0.87710423  0.00541469     0.11100
Cu152      Cu  0.84778042  0.84182664  0.00667997     0.44200
Cu153      Cu  0.79430717  0.82866835  0.00552778     0.42000
Cu154      Cu  0.83390200  0.78836107  0.00518830     0.43900
N155        N  0.86902798  0.81823398  0.00647805    -0.32600
N156        N  0.86412557  0.79852282  0.00587130    -0.26800
C157        C  0.88150029  0.78727713  0.00581963    -0.02900
C158        C  0.89793992  0.80068175  0.00642921     0.09300
C159        C  0.88955836  0.82011200  0.00682989     0.03100
H160        H  0.88208145  0.77066746  0.00535991     0.10700
H161        H  0.89774211  0.83457273  0.00730590     0.09800
N162        N  0.80248919  0.78280841  0.00497473    -0.34000
N163        N  0.78823088  0.79732196  0.00511814    -0.26200
C164        C  0.76959154  0.78840579  0.00502406    -0.01400
C165        C  0.77232916  0.76739316  0.00481168     0.07200
C166        C  0.79327150  0.76430358  0.00478869     0.05300
H167        H  0.75515998  0.79663540  0.00514430     0.10400
H168        H  0.80125070  0.74972132  0.00469349     0.09200
N169        N  0.63653793  0.69095930  0.00541711    -0.25200
N170        N  0.63169551  0.67122979  0.00595802    -0.33000
C171        C  0.61116524  0.66929933  0.00614106     0.03200
C172        C  0.60275348  0.68871877  0.00569758     0.09200
C173        C  0.61914799  0.70215770  0.00524340    -0.03900
H174        H  0.60300829  0.65482105  0.00654407     0.09900
H175        H  0.61853044  0.71876646  0.00480777     0.11100
Cu176      Cu  0.65304427  0.64773063  0.00635594     0.44200
Cu177      Cu  0.66664330  0.70137123  0.00496510     0.42000
Cu178      Cu  0.70647929  0.66172624  0.00567980     0.43900
N179        N  0.67665687  0.62650975  0.00647184    -0.32600
N180        N  0.69633711  0.63148894  0.00621251    -0.26800
C181        C  0.70764083  0.61415050  0.00633206    -0.02900
C182        C  0.69431533  0.59764787  0.00668557     0.09300
C183        C  0.67486039  0.60594795  0.00676080     0.03100
H184        H  0.72424048  0.61363949  0.00615498     0.10700
H185        H  0.66044537  0.59769076  0.00698445     0.09800
N186        N  0.71234005  0.69308998  0.00519184    -0.34000
N187        N  0.69792862  0.70743750  0.00491626    -0.26200
C188        C  0.70693215  0.72604760  0.00469909    -0.01400
C189        C  0.72790924  0.72318743  0.00484169     0.07200
C190        C  0.73087876  0.70220638  0.00515617     0.05300
H191        H  0.69878880  0.74053749  0.00449005     0.10400
H192        H  0.74539845  0.69413580  0.00537396     0.09200
N193        N  0.80433457  0.99532322  0.86958677    -0.25200
N194        N  0.82407461  0.99527065  0.87431551    -0.33000
C195        C  0.82614793  0.99523961  0.89485484     0.03200
C196        C  0.80680480  0.99527380  0.90341226     0.09200
C197        C  0.79325759  0.99532686  0.88707147    -0.03900
H198        H  0.84067379  0.99519670  0.90292323     0.09900
H199        H  0.77666500  0.99536612  0.88779213     0.11100
Cu200      Cu  0.84734893  0.99524594  0.85273371     0.44200
Cu201      Cu  0.79395503  0.99538617  0.83942614     0.42000
Cu202      Cu  0.83370333  0.99534920  0.79920192     0.43900
N203        N  0.86871037  0.99523476  0.82925435    -0.32600
N204        N  0.86389829  0.99527432  0.80950975    -0.26800
C205        C  0.88132994  0.99526475  0.79835691    -0.02900
C206        C  0.89771100  0.99521624  0.81185862     0.09300
C207        C  0.88923394  0.99519877  0.83124801     0.03100
H208        H  0.88198976  0.99529692  0.78174408     0.10700
H209        H  0.89734807  0.99516921  0.84575896     0.09800
N210        N  0.80228879  0.99540978  0.79358959    -0.34000
N211        N  0.78800691  0.99542342  0.80807598    -0.26200
C212        C  0.76938160  0.99545266  0.79913586    -0.01400
C213        C  0.77214359  0.99545802  0.77813538     0.07200
C214        C  0.79308954  0.99542999  0.77506943     0.05300
H215        H  0.75494132  0.99546234  0.80734527     0.10400
H216        H  0.80108160  0.99541830  0.76049708     0.09200
N217        N  0.63628163  0.99536104  0.70166738    -0.25200
N218        N  0.63154281  0.99533289  0.68190209    -0.33000
C219        C  0.61102677  0.99530453  0.67984298     0.03200
C220        C  0.60250859  0.99531547  0.69921156     0.09200
C221        C  0.61882717  0.99535149  0.71276068    -0.03900
H222        H  0.60295195  0.99527624  0.66530958     0.09900
H223        H  0.61811473  0.99536758  0.72937127     0.11100
Cu224      Cu  0.65295908  0.99532620  0.65848848     0.44200
Cu225      Cu  0.66633769  0.99540290  0.71226283     0.42000
Cu226      Cu  0.70622563  0.99532848  0.67260652     0.43900
N227        N  0.67656874  0.99530155  0.63729570    -0.32600
N228        N  0.69623329  0.99529745  0.64233504    -0.26800
C229        C  0.70758633  0.99527598  0.62503609    -0.02900
C230        C  0.69430093  0.99526652  0.60849342     0.09300
C231        C  0.67482211  0.99528329  0.61672878     0.03100
H232        H  0.72418843  0.99526867  0.62457982     0.10700
H233        H  0.66042813  0.99528141  0.60842618     0.09800
N234        N  0.71203281  0.99539233  0.70396261    -0.34000
N235        N  0.69763318  0.99542136  0.71831953    -0.26200
C236        C  0.70666279  0.99545652  0.73692300    -0.01400
C237        C  0.72763639  0.99544993  0.73403441     0.07200
C238        C  0.73057977  0.99540873  0.71305719     0.05300
H239        H  0.69854178  0.99548041  0.75142367     0.10400
H240        H  0.74508876  0.99538815  0.70497025     0.09200
N241        N  0.00013931  0.85893942  0.81068226    -0.25200
N242        N  0.00052136  0.86389180  0.83039080    -0.33000
C243        C  0.00071114  0.88446359  0.83219449     0.03200
C244        C  0.00043387  0.89278339  0.81271566     0.09200
C245        C  0.00007107  0.87628353  0.79937870    -0.03900
H246        H  0.00097977  0.89271578  0.84662698     0.09900
H247        H  0.99974361  0.87679969  0.78276363     0.11100
Cu248      Cu  0.00064029  0.84257502  0.85401198     0.44200
Cu249      Cu  0.99967770  0.82874589  0.80043507     0.42000
Cu250      Cu  0.99955719  0.78897428  0.84018385     0.43900
N251        N  0.00051624  0.81894299  0.87531605    -0.32600
N252        N  0.00008106  0.79923475  0.87036593    -0.26800
C253        C  0.00003130  0.78793193  0.88770943    -0.02900
C254        C  0.00046203  0.80126928  0.90420496     0.09300
C255        C  0.00076002  0.82074652  0.89588646     0.03100
H256        H  0.99967475  0.77131770  0.88822742     0.10700
H257        H  0.00108036  0.83517800  0.90413828     0.09800
N258        N  0.99928834  0.78302119  0.80885217    -0.34000
N259        N  0.99933950  0.79741281  0.79446827    -0.26200
C260        C  0.99918318  0.78835523  0.77588239    -0.01400
C261        C  0.99901949  0.76736679  0.77879855     0.07200
C262        C  0.99909842  0.76443980  0.79978593     0.05300
H263        H  0.99922192  0.79646988  0.76137058     0.10400
H264        H  0.99905948  0.74992427  0.80789422     0.09200
N265        N  0.00103082  0.63158174  0.70239096    -0.25200
N266        N  0.00146396  0.62671609  0.68266466    -0.33000
C267        C  0.00176369  0.60616140  0.68075564     0.03200
C268        C  0.00150453  0.59775071  0.70018650     0.09200
C269        C  0.00103878  0.61418184  0.71361076    -0.03900
H270        H  0.00206917  0.59798350  0.66628192     0.09900
H271        H  0.00066651  0.61358048  0.73022171     0.11100
Cu272      Cu  0.00145040  0.64809828  0.65915598     0.44200
Cu273      Cu  0.00033278  0.66175325  0.71270824     0.42000
Cu274      Cu  0.00003168  0.70164027  0.67298424     0.43900
N275        N  0.00123561  0.67168903  0.63786721    -0.32600
N276        N  0.00068257  0.69139961  0.64278781    -0.26800
C277        C  0.00057108  0.70266591  0.62541805    -0.02900
C278        C  0.00108616  0.68928660  0.60895291     0.09300
C279        C  0.00149639  0.66983761  0.61730875     0.03100
H280        H  0.00009458  0.71927588  0.62486092     0.10700
H281        H  0.00188439  0.65538846  0.60909089     0.09800
N282        N  0.99963166  0.70750210  0.70434056    -0.34000
N283        N  0.99974197  0.69308357  0.71870001    -0.26200
C284        C  0.99947830  0.70210703  0.73730183    -0.01400
C285        C  0.99918479  0.72309892  0.73442381     0.07200
C286        C  0.99929722  0.72606438  0.71344230     0.05300
H287        H  0.99954299  0.69396661  0.75179939     0.10400
H288        H  0.99919127  0.74059487  0.70536154     0.09200
N289        N  0.50031889  0.19134546  0.64171797    -0.25200
N290        N  0.50075958  0.17163357  0.63679120    -0.33000
C291        C  0.50105393  0.16979191  0.61623073     0.03200
C292        C  0.50078864  0.18924931  0.60788211     0.09200
C293        C  0.50032321  0.20262120  0.62435420    -0.03900
H294        H  0.50136715  0.15534483  0.60800620     0.09900
H295        H  0.49995472  0.21923421  0.62380547     0.11100
Cu296      Cu  0.50077218  0.14803659  0.65808619     0.44200
Cu297      Cu  0.49964029  0.20158187  0.67191244     0.42000
Cu298      Cu  0.49941011  0.16173508  0.71165767     0.43900
N299        N  0.50049783  0.12667537  0.68162168    -0.32600
N300        N  0.49996523  0.13155132  0.70134417    -0.26800
C301        C  0.49982943  0.11415364  0.71256931    -0.02900
C302        C  0.50030192  0.09771354  0.69915415     0.09300
C303        C  0.50071640  0.10611810  0.67972305     0.03100
H304        H  0.49938360  0.11355973  0.72917872     0.10700
H305        H  0.50109850  0.09793399  0.66525473     0.09800
N306        N  0.49917140  0.19308071  0.71763384    -0.34000
N307        N  0.49926326  0.20748299  0.70325842    -0.26200
C308        C  0.49918941  0.22605972  0.71233598    -0.01400
C309        C  0.49903861  0.22312561  0.73332095     0.07200
C310        C  0.49903281  0.20213233  0.73622522     0.05300
H311        H  0.49929146  0.24057943  0.70423584     0.10400
H312        H  0.49898906  0.19401045  0.75073303     0.09200
N313        N  0.50123082  0.35888142  0.81000210    -0.25200
N314        N  0.50168592  0.36365230  0.82975343    -0.33000
C315        C  0.50207501  0.38419541  0.83176307     0.03200
C316        C  0.50185643  0.39270507  0.81237682     0.09200
C317        C  0.50131855  0.37634010  0.79887007    -0.03900
H318        H  0.50238342  0.39230005  0.84627812     0.09900
H319        H  0.50092437  0.37702736  0.78226266     0.11100
Cu320      Cu  0.50148569  0.34219912  0.85319784     0.44200
Cu321      Cu  0.50033912  0.32875510  0.79951946     0.42000
Cu322      Cu  0.49965410  0.28878012  0.83914703     0.43900
N323        N  0.50088323  0.31853967  0.87440456    -0.32600
N324        N  0.50017805  0.29885740  0.86939620    -0.26800
C325        C  0.49987997  0.28751570  0.88671532    -0.02900
C326        C  0.50042671  0.30081841  0.90324286     0.09300
C327        C  0.50105294  0.32029975  0.89497225     0.03100
H328        H  0.49929571  0.27090683  0.88719580     0.10700
H329        H  0.50156760  0.33470814  0.90325440     0.09800
N330        N  0.49943119  0.28298864  0.80778203    -0.34000
N331        N  0.49968177  0.29742643  0.79344362    -0.26200
C332        C  0.49955291  0.28841892  0.77482874    -0.01400
C333        C  0.49920190  0.26742000  0.77768309     0.07200
C334        C  0.49913457  0.26443728  0.79865993     0.05300
H335        H  0.49975410  0.29657232  0.76033996     0.10400
H336        H  0.49894086  0.24989987  0.80672641     0.09200
O337        O  0.50029213  0.96424972  0.72386221    -0.70800
O338        O  0.50024520  0.02620179  0.72383286    -0.71800
O339        O  0.46935622  0.99520581  0.72406678    -0.60400
O340        O  0.53115851  0.99524863  0.72370151    -0.68800
O341        O  0.53077565  0.99523302  0.68954011    -0.68400
O342        O  0.46932939  0.99519119  0.68990451    -0.59700
O343        O  0.50003748  0.02596370  0.68967390    -0.72200
O344        O  0.50008335  0.96445945  0.68970307    -0.70900
Cu345      Cu  0.50026882  0.99522666  0.72510423     1.04600
Cu346      Cu  0.50004672  0.99521086  0.68852968     1.04300
C347        C  0.50020818  0.95470964  0.70670820     0.95400
C348        C  0.50014718  0.03572762  0.70667056     0.94500
C349        C  0.45971346  0.99519455  0.70698015     0.86600
C350        C  0.54059297  0.99524921  0.70650659     0.92900
N351        N  0.00015078  0.13154504  0.81069299    -0.25200
N352        N  0.00053715  0.12657420  0.83039706    -0.33000
C353        C  0.00070959  0.10600066  0.83218250     0.03200
C354        C  0.00041595  0.09769902  0.81269663     0.09200
C355        C  0.00006233  0.11421151  0.79937407    -0.03900
H356        H  0.00097664  0.09773483  0.84660763     0.09900
H357        H  0.99972670  0.11371111  0.78275869     0.11100
Cu358      Cu  0.00067724  0.14786816  0.85403880     0.44200
Cu359      Cu  0.99970497  0.16174832  0.80047497     0.42000
Cu360      Cu  0.99960156  0.20148227  0.84027195     0.43900
N361        N  0.00055068  0.17147268  0.87537374    -0.32600
N362        N  0.00011769  0.19118704  0.87044640    -0.26800
C363        C  0.00006223  0.20246803  0.88780399    -0.02900
C364        C  0.00048700  0.18911052  0.90428520     0.09300
C365        C  0.00078720  0.16964356  0.89594263     0.03100
H366        H  0.99970571  0.21908175  0.88834152     0.10700
H367        H  0.00110387  0.15520162  0.90417722     0.09800
N368        N  0.99932251  0.20746540  0.80894248    -0.34000
N369        N  0.99936703  0.19308781  0.79454494    -0.26200
C370        C  0.99919181  0.20216267  0.77596744    -0.01400
C371        C  0.99902299  0.22314791  0.77890170     0.07200
C372        C  0.99911822  0.22605541  0.79989208     0.05300
H373        H  0.99921481  0.19406135  0.76144842     0.10400
H374        H  0.99907398  0.24056341  0.80801290     0.09200
N375        N  0.00097487  0.35894555  0.70250132    -0.25200
N376        N  0.00148531  0.36380378  0.68277494    -0.33000
C377        C  0.00183533  0.38435692  0.68085898     0.03200
C378        C  0.00152932  0.39277492  0.70028537     0.09200
C379        C  0.00098216  0.37634931  0.71371455    -0.03900
H380        H  0.00220069  0.39252916  0.66638311     0.09900
H381        H  0.00055161  0.37695720  0.73032395     0.11100
Cu382      Cu  0.00148638  0.34241467  0.65927404     0.44200
Cu383      Cu  0.00018300  0.32877696  0.71282189     0.42000
Cu384      Cu  0.99985097  0.28888404  0.67309342     0.43900
N385        N  0.00121071  0.31883096  0.63797959    -0.32600
N386        N  0.00056873  0.29912196  0.64289578    -0.26800
C387        C  0.00043247  0.28786048  0.62552314    -0.02900
C388        C  0.00102513  0.30124189  0.60906079     0.09300
C389        C  0.00150580  0.32068659  0.61742192     0.03100
H390        H  0.99988889  0.27125283  0.62496198     0.10700
H391        H  0.00196366  0.33513613  0.60920792     0.09800
N392        N  0.99946458  0.28302700  0.70445241    -0.34000
N393        N  0.99958498  0.29744586  0.71881099    -0.26200
C394        C  0.99935225  0.28842250  0.73741377    -0.01400
C395        C  0.99906839  0.26743053  0.73453795     0.07200
C396        C  0.99915455  0.26446482  0.71355637     0.05300
H397        H  0.99943998  0.29656312  0.75191066     0.10400
H398        H  0.99905562  0.24993388  0.70547693     0.09200
N399        N  0.13644351  0.99530578  0.80945072    -0.25200
N400        N  0.13168550  0.99528376  0.82920593    -0.33000
C401        C  0.11116437  0.99528359  0.83122807     0.03200
C402        C  0.10264827  0.99530605  0.81184692     0.09200
C403        C  0.11899196  0.99531968  0.79832391    -0.03900
H404        H  0.10307921  0.99526270  0.84574944     0.09900
H405        H  0.11829573  0.99533382  0.78171179     0.11100
Cu406      Cu  0.15312874  0.99524178  0.85265022     0.44200
Cu407      Cu  0.16657202  0.99530887  0.79903511     0.42000
Cu408      Cu  0.20649811  0.99525161  0.83901888     0.43900
N409        N  0.17655943  0.99520098  0.87411316    -0.32600
N410        N  0.19627259  0.99520439  0.86927477    -0.26800
C411        C  0.20745139  0.99518342  0.88671119    -0.02900
C412        C  0.19400916  0.99516601  0.90313993     0.09300
C413        C  0.17461414  0.99517783  0.89466990     0.03100
H414        H  0.22404779  0.99518731  0.88734368     0.10700
H415        H  0.16013576  0.99517655  0.90281326     0.09800
N416        N  0.21230734  0.99530113  0.80760116    -0.34000
N417        N  0.19792553  0.99531992  0.79320470    -0.26200
C418        C  0.20697963  0.99534689  0.77461898    -0.01400
C419        C  0.22794914  0.99534523  0.77752976     0.07200
C420        C  0.23086705  0.99531597  0.79852330     0.05300
H421        H  0.19887169  0.99536498  0.76010515     0.10400
H422        H  0.24537001  0.99530425  0.80663087     0.09200
N423        N  0.30468027  0.99532314  0.64181725    -0.25200
N424        N  0.32441004  0.99529254  0.63704419    -0.33000
C425        C  0.32642946  0.99528509  0.61650420     0.03200
C426        C  0.30706681  0.99531200  0.60799342     0.09200
C427        C  0.29356130  0.99533571  0.62435344    -0.03900
H428        H  0.34093351  0.99526287  0.60840563     0.09900
H429        H  0.27696709  0.99536140  0.62366101     0.11100
Cu430      Cu  0.34778069  0.99526620  0.65850777     0.44200
Cu431      Cu  0.29426952  0.99534991  0.67197715     0.42000
Cu432      Cu  0.33380406  0.99534193  0.71204472     0.43900
N433        N  0.36894979  0.99525077  0.68215300    -0.32600
N434        N  0.36400383  0.99528005  0.70186193    -0.26800
C435        C  0.38134777  0.99526239  0.71315026    -0.02900
C436        C  0.39780875  0.99521974  0.69977689     0.09300
C437        C  0.38948296  0.99521406  0.68031996     0.03100
H438        H  0.38189023  0.99528161  0.72976778     0.10700
H439        H  0.39770365  0.99518825  0.66587471     0.09800
N440        N  0.30244783  0.99537033  0.71778597    -0.34000
N441        N  0.28815450  0.99537105  0.70331003    -0.26200
C442        C  0.26953866  0.99537783  0.71227168    -0.01400
C443        C  0.27233607  0.99538180  0.73328342     0.07200
C444        C  0.29328918  0.99537673  0.73631777     0.05300
H445        H  0.25508484  0.99537443  0.70407631     0.10400
H446        H  0.30131371  0.99537158  0.75087790     0.09200
O447        O  0.96925538  0.99522351  0.78764043    -0.70800
O448        O  0.03110377  0.99525445  0.78761612    -0.71800
O449        O  0.00020830  0.96424182  0.78769382    -0.60400
O450        O  0.00017755  0.02623573  0.78767325    -0.68800
O451        O  0.00020107  0.02598607  0.82183147    -0.68400
O452        O  0.00023285  0.96450992  0.82185188    -0.59700
O453        O  0.03095514  0.99526438  0.82177531    -0.72200
O454        O  0.96944600  0.99523255  0.82179797    -0.70900
Cu455      Cu  0.00018196  0.99523829  0.78641361     1.04600
Cu456      Cu  0.00020680  0.99524844  0.82298407     1.04300
C457        C  0.95971088  0.99522288  0.80477804     0.95400
C458        C  0.04066552  0.99526641  0.80475049     0.94500
C459        C  0.00024321  0.95472953  0.80486807     0.86600
C460        C  0.00020570  0.03575729  0.80484184     0.92900
N461        N  0.19774662  0.49523552  0.64303414    -0.25200
N462        N  0.17806144  0.49525378  0.63806326    -0.33000
C463        C  0.17624786  0.49527090  0.61749944     0.03200
C464        C  0.19569669  0.49526279  0.60918737     0.09200
C465        C  0.20903783  0.49524009  0.62568963    -0.03900
H466        H  0.16182464  0.49528910  0.60924780     0.09900
H467        H  0.22563818  0.49523016  0.62517411     0.11100
Cu468      Cu  0.15446300  0.49525939  0.65930904     0.44200
Cu469      Cu  0.20786437  0.49521821  0.67328238     0.42000
Cu470      Cu  0.16780651  0.49529252  0.71295718     0.43900
N471        N  0.13295047  0.49527452  0.68267139    -0.32600
N472        N  0.13767698  0.49528925  0.70243833    -0.26800
C473        C  0.12020182  0.49529677  0.71351743    -0.02900
C474        C  0.10387282  0.49528618  0.69995847     0.09300
C475        C  0.11242846  0.49527205  0.68059646     0.03100
H476        H  0.11947731  0.49530795  0.73012742     0.10700
H477        H  0.10437011  0.49526065  0.66605406     0.09800
N478        N  0.19914752  0.49527240  0.71900709    -0.34000
N479        N  0.21358097  0.49524299  0.70467761    -0.26200
C480        C  0.23211244  0.49523564  0.71381738    -0.01400
C481        C  0.22913403  0.49526138  0.73479524     0.07200
C482        C  0.20814889  0.49528400  0.73762907     0.05300
H483        H  0.24663811  0.49521273  0.70576008     0.10400
H484        H  0.19999866  0.49530595  0.75211285     0.09200
N485        N  0.30614585  0.49523166  0.87041219    -0.25200
N486        N  0.32588979  0.49523080  0.87514145    -0.33000
C487        C  0.32796210  0.49522777  0.89568394     0.03200
C488        C  0.30861893  0.49522700  0.90424134     0.09200
C489        C  0.29507423  0.49522932  0.88789969    -0.03900
H490        H  0.34248736  0.49522632  0.90375365     0.09900
H491        H  0.27848168  0.49522930  0.88862234     0.11100
Cu492      Cu  0.34919371  0.49523321  0.85357764     0.44200
Cu493      Cu  0.29566754  0.49523517  0.84026464     0.42000
Cu494      Cu  0.33517790  0.49519910  0.80006077     0.43900
N495        N  0.37037770  0.49522688  0.82992450    -0.32600
N496        N  0.36541996  0.49521285  0.81021393    -0.26800
C497        C  0.38276427  0.49521344  0.79892898    -0.02900
C498        C  0.39924405  0.49522834  0.81230242     0.09300
C499        C  0.39091708  0.49523638  0.83175853     0.03100
H500        H  0.38329707  0.49520438  0.78231153     0.10700
H501        H  0.39914403  0.49524845  0.84620585     0.09800
N502        N  0.30377482  0.49521742  0.79442108    -0.34000
N503        N  0.28952256  0.49523302  0.80893107    -0.26200
C504        C  0.27087854  0.49524823  0.80001506    -0.01400
C505        C  0.27360380  0.49524198  0.77899877     0.07200
C506        C  0.29455005  0.49522228  0.77591211     0.05300
H507        H  0.25645139  0.49526319  0.80824713     0.10400
H508        H  0.30252503  0.49521352  0.76133038     0.09200
O509        O  0.03198896  0.49526800  0.69041592    -0.70800
O510        O  0.97049916  0.49524351  0.69095448    -0.71800
O511        O  0.00123312  0.52601129  0.69066747    -0.60400
O512        O  0.00125968  0.46450090  0.69070249    -0.68800
O513        O  0.00155097  0.46430831  0.72486095    -0.68400
O514        O  0.00152512  0.52624042  0.72482568    -0.59700
O515        O  0.97057501  0.49526181  0.72511177    -0.72200
O516        O  0.03247631  0.49528572  0.72457008    -0.70900
Cu517      Cu  0.00123107  0.49525548  0.68951353     1.04600
Cu518      Cu  0.00154099  0.49527495  0.72608227     1.04300
C519        C  0.04187321  0.49528006  0.70734578     0.95400
C520        C  0.96089552  0.49524723  0.70803731     0.94500
C521        C  0.00138994  0.53576956  0.70766790     0.86600
C522        C  0.00142226  0.45476082  0.70771392     0.92900
O523        O  0.50173614  0.46428431  0.78799983    -0.70800
O524        O  0.50173093  0.52621074  0.78802302    -0.71800
O525        O  0.53263742  0.49524901  0.78812983    -0.60400
O526        O  0.47078334  0.49524638  0.78789060    -0.68800
O527        O  0.47086236  0.49523303  0.82204947    -0.68400
O528        O  0.53231937  0.49523610  0.82229021    -0.59700
O529        O  0.50161575  0.52599912  0.82218221    -0.72200
O530        O  0.50162150  0.46446876  0.82215910    -0.70900
Cu531      Cu  0.50172195  0.49524807  0.78677452     1.04600
Cu532      Cu  0.50159649  0.49523376  0.82334681     1.04300
C533        C  0.50170709  0.45473141  0.80514427     0.95400
C534        C  0.50170031  0.53574982  0.80517463     0.94500
C535        C  0.54210782  0.49524363  0.80531603     0.86600
C536        C  0.46118529  0.49523914  0.80500044     0.92900
N537        N  0.49975048  0.63136762  0.20192361    -0.25200
N538        N  0.50035264  0.62632754  0.18224435    -0.33000
C539        C  0.50059023  0.60575494  0.18053064     0.03200
C540        C  0.50011519  0.59753232  0.20003891     0.09200
C541        C  0.49958831  0.61407910  0.21330328    -0.03900
H542        H  0.50099800  0.59743889  0.16613827     0.09900
H543        H  0.49906157  0.61363389  0.22991503     0.11100
Cu544      Cu  0.50062722  0.64749412  0.15852886     0.44200
Cu545      Cu  0.49909015  0.66157884  0.21203406     0.42000
Cu546      Cu  0.49946919  0.70114402  0.17215178     0.43900
N547        N  0.50058445  0.67102222  0.13715268    -0.32600
N548        N  0.50013565  0.69075130  0.14201484    -0.26800
C549        C  0.50014146  0.70197064  0.12461846    -0.02900
C550        C  0.50062110  0.68855080  0.10819096     0.09300
C551        C  0.50088778  0.66911693  0.11659633     0.03100
H552        H  0.49977902  0.71858205  0.12401833     0.10700
H553        H  0.50122251  0.65464570  0.10841526     0.09800
N554        N  0.49899076  0.70724642  0.20345271    -0.34000
N555        N  0.49885049  0.69290825  0.21788689    -0.26200
C556        C  0.49867509  0.70202241  0.23644038    -0.01400
C557        C  0.49870074  0.72299620  0.23345230     0.07200
C558        C  0.49890415  0.72585879  0.21245609     0.05300
H559        H  0.49859868  0.69395446  0.25097846     0.10400
H560        H  0.49904299  0.74034788  0.20430200     0.09200
N561        N  0.50057711  0.79941561  0.36921413    -0.25200
N562        N  0.50120896  0.81913562  0.37409385    -0.33000
C563        C  0.50154571  0.82102053  0.39465087     0.03200
C564        C  0.50110623  0.80158408  0.40304088     0.09200
C565        C  0.50049428  0.78818215  0.38660195    -0.03900
H566        H  0.50197590  0.83548260  0.40284395     0.09900
H567        H  0.49994501  0.77157561  0.38718901     0.11100
Cu568      Cu  0.50133212  0.84269547  0.35275651     0.44200
Cu569      Cu  0.49972626  0.78905687  0.33906843     0.42000
Cu570      Cu  0.49978684  0.82872089  0.29925360     0.43900
N571        N  0.50103263  0.86392053  0.32909808    -0.32600
N572        N  0.50043855  0.85892469  0.30940749    -0.26800
C573        C  0.50029105  0.87624167  0.29806796    -0.02900
C574        C  0.50082273  0.89275870  0.31137359     0.09300
C575        C  0.50127978  0.88448837  0.33086157     0.03100
H576        H  0.49979562  0.87672650  0.28145594     0.10700
H577        H  0.50171029  0.89276909  0.34527375     0.09800
N578        N  0.49928135  0.79739798  0.29334674    -0.34000
N579        N  0.49925207  0.78302987  0.30775278    -0.26200
C580        C  0.49900562  0.76443686  0.29871248    -0.01400
C581        C  0.49886949  0.76734156  0.27772186     0.07200
C582        C  0.49905085  0.78832078  0.27477490     0.05300
H583        H  0.49898989  0.74993102  0.30683836     0.10400
H584        H  0.49907525  0.79641681  0.26025251     0.09200
O585        O  0.53149567  0.71363820  0.00581271    -0.70800
O586        O  0.46966711  0.71417277  0.00602012    -0.71800
O587        O  0.50069453  0.71360551  0.03686879    -0.60400
O588        O  0.50047890  0.71416864  0.97493590    -0.68800
O589        O  0.50019606  0.68000870  0.97486746    -0.68400
O590        O  0.50041051  0.67944872  0.03634951    -0.59700
O591        O  0.46959051  0.68001179  0.00571931    -0.72200
O592        O  0.53101168  0.67947997  0.00551384    -0.70900
Cu593      Cu  0.50059435  0.71513877  0.00591741     1.04600
Cu594      Cu  0.50029108  0.67856477  0.00559819     1.04300
C595        C  0.54088013  0.69640943  0.00564619     0.95400
C596        C  0.45999998  0.69710175  0.00592480     0.94500
C597        C  0.50058454  0.69636487  0.04624875     0.86600
C598        C  0.50031345  0.69709327  0.96525914     0.92900
N599        N  0.13656468  0.79857483  0.00561215    -0.25200
N600        N  0.13168407  0.81829912  0.00595744    -0.33000
C601        C  0.11115175  0.82019084  0.00626038     0.03200
C602        C  0.10276381  0.80075665  0.00610414     0.09200
C603        C  0.11919020  0.78733936  0.00568890    -0.03900
H604        H  0.10297230  0.83465861  0.00658677     0.09900
H605        H  0.11860322  0.77072457  0.00548190     0.11100
Cu606      Cu  0.15298198  0.84187523  0.00606616     0.44200
Cu607      Cu  0.16673406  0.78832191  0.00517757     0.42000
Cu608      Cu  0.20642680  0.82845410  0.00588667     0.43900
N609        N  0.17632479  0.86343136  0.00612802    -0.32600
N610        N  0.19605719  0.85866169  0.00607863    -0.26800
C611        C  0.20716902  0.87613392  0.00606394    -0.02900
C612        C  0.19366726  0.89251661  0.00610464     0.09300
C613        C  0.17430225  0.88398307  0.00614462     0.03100
H614        H  0.22376277  0.87682147  0.00598112     0.10700
H615        H  0.15979383  0.89207893  0.00614307     0.09800
N616        N  0.21241091  0.79707225  0.00548040    -0.34000
N617        N  0.19809546  0.78262082  0.00519127    -0.26200
C618        C  0.20722466  0.76407272  0.00502223    -0.01400
C619        C  0.22817684  0.76706368  0.00521044     0.07200
C620        C  0.23100957  0.78806642  0.00550005     0.05300
H621        H  0.19917781  0.74952955  0.00482154     0.10400
H622        H  0.24547782  0.79622671  0.00574008     0.09200
N623        N  0.30518403  0.63150107  0.00618630    -0.25200
N624        N  0.32491832  0.62673902  0.00647858    -0.33000
C625        C  0.32694839  0.60619895  0.00670920     0.03200
C626        C  0.30759021  0.59768424  0.00655881     0.09200
C627        C  0.29407823  0.61403663  0.00622539    -0.03900
H628        H  0.34145530  0.59810348  0.00695563     0.09900
H629        H  0.27748560  0.61333946  0.00601794     0.11100
Cu630      Cu  0.34829026  0.64820768  0.00653436     0.44200
Cu631      Cu  0.29469200  0.66162645  0.00576178     0.42000
Cu632      Cu  0.33410089  0.70169360  0.00608427     0.43900
N633        N  0.36937060  0.67193895  0.00651309    -0.32600
N634        N  0.36432813  0.69162476  0.00635112    -0.26800
C635        C  0.38160944  0.70299701  0.00628219    -0.02900
C636        C  0.39813861  0.68970774  0.00640898     0.09300
C637        C  0.38991545  0.67020723  0.00655301     0.03100
H638        H  0.38206255  0.71961581  0.00609396     0.10700
H639        H  0.39821363  0.65580331  0.00662171     0.09800
N640        N  0.30275712  0.70742271  0.00570980    -0.34000
N641        N  0.28848686  0.69293406  0.00557593    -0.26200
C642        C  0.26985968  0.70187625  0.00537432    -0.01400
C643        C  0.27263350  0.72288998  0.00537971     0.07200
C644        C  0.29357849  0.72594524  0.00559522     0.05300
H645        H  0.25541670  0.69366805  0.00526331     0.10400
H646        H  0.30158396  0.74051219  0.00568747     0.09200
N647        N  0.00025878  0.79936109  0.14291346    -0.25200
N648        N  0.00064364  0.81906279  0.13793912    -0.33000
C649        C  0.00081991  0.82084451  0.11736684     0.03200
C650        C  0.00053041  0.80135629  0.10907425     0.09200
C651        C  0.00017525  0.78803716  0.12558594    -0.03900
H652        H  0.00109093  0.83526718  0.10909714     0.09900
H653        H  0.99984481  0.77142176  0.12508989     0.11100
Cu654      Cu  0.00077928  0.84269484  0.15922952     0.44200
Cu655      Cu  0.99980143  0.78915665  0.17310664     0.42000
Cu656      Cu  0.99963915  0.82894622  0.21282745     0.43900
N657        N  0.00063593  0.86402916  0.18282127    -0.32600
N658        N  0.00017938  0.85910398  0.20253442    -0.26800
C659        C  0.00011819  0.87645779  0.21381599    -0.02900
C660        C  0.00056395  0.89293336  0.20045779     0.09300
C661        C  0.00088251  0.88459570  0.18099079     0.03100
H662        H  0.99974601  0.87699552  0.23042937     0.10700
H663        H  0.00122088  0.89283038  0.16654955     0.09800
N664        N  0.99931827  0.79763395  0.21880699    -0.34000
N665        N  0.99938590  0.78323593  0.20443149    -0.26200
C666        C  0.99912429  0.76466175  0.21350336    -0.01400
C667        C  0.99887366  0.76760487  0.23448279     0.07200
C668        C  0.99901282  0.78859021  0.23739520     0.05300
H669        H  0.99912092  0.75014175  0.20540391     0.10400
H670        H  0.99890702  0.79671218  0.25190241     0.09200
N671        N  0.00015336  0.69123741  0.37021859    -0.25200
N672        N  0.00051088  0.67150964  0.37508071    -0.33000
C673        C  0.00077826  0.66959428  0.39563414     0.03200
C674        C  0.00057621  0.68902502  0.40404242     0.09200
C675        C  0.00017896  0.70245490  0.38761652    -0.03900
H676        H  0.00103165  0.65511837  0.40381119     0.09900
H677        H  0.99987158  0.71906707  0.38821903     0.11100
Cu678      Cu  0.00046060  0.64802126  0.35368948     0.44200
Cu679      Cu  0.99953482  0.70155299  0.34005927     0.42000
Cu680      Cu  0.99916381  0.66182803  0.30015475     0.43900
N681        N  0.00025155  0.62672885  0.33011385    -0.32600
N682        N  0.99974347  0.63164268  0.31040061    -0.26800
C683        C  0.99963960  0.61427164  0.29914043    -0.02900
C684        C  0.00011219  0.59781416  0.31252923     0.09300
C685        C  0.00049107  0.60617266  0.33197554     0.03100
H686        H  0.99920793  0.61370927  0.28252913     0.10700
H687        H  0.00085434  0.59795933  0.34642876     0.09800
N688        N  0.99882505  0.69317784  0.29431926    -0.34000
N689        N  0.99896367  0.70753237  0.30874124    -0.26200
C690        C  0.99877843  0.72613596  0.29972589    -0.01400
C691        C  0.99850609  0.72326010  0.27873777     0.07200
C692        C  0.99855012  0.70228391  0.27576067     0.05300
H693        H  0.99890832  0.74063100  0.30786947     0.10400
H694        H  0.99846570  0.69420957  0.26122678     0.09200
O695        O  0.96962237  0.81040926  0.00664130    -0.70800
O696        O  0.03110709  0.81040823  0.00662946    -0.71800
O697        O  0.00036450  0.81044753  0.97590790    -0.60400
O698        O  0.00038762  0.81046154  0.03737442    -0.68800
O699        O  0.00038713  0.77630248  0.03764095    -0.68400
O700        O  0.00036359  0.77628832  0.97566344    -0.59700
O701        O  0.03129576  0.77624873  0.00663808    -0.72200
O702        O  0.96944270  0.77625081  0.00665118    -0.70900
Cu703      Cu  0.00036899  0.81160080  0.00664126     1.04600
Cu704      Cu  0.00037047  0.77502852  0.00665206     1.04300
C705        C  0.95989519  0.79339120  0.00663715     0.95400
C706        C  0.04083603  0.79339195  0.00660784     0.94500
C707        C  0.00037472  0.79345588  0.96614167     0.86600
C708        C  0.00039815  0.79347581  0.04715130     0.92900
N709        N  0.19694300  0.63156866  0.50664162    -0.25200
N710        N  0.17727063  0.62655631  0.50650014    -0.33000
C711        C  0.17551692  0.60598689  0.50646370     0.03200
C712        C  0.19499244  0.59772504  0.50658629     0.09200
C713        C  0.20828317  0.61425577  0.50669774    -0.03900
H714        H  0.16111849  0.59769828  0.50636981     0.09900
H715        H  0.22488469  0.61378208  0.50682111     0.11100
Cu716      Cu  0.15362161  0.64776545  0.50640613     0.44200
Cu717      Cu  0.20701936  0.66180885  0.50675890     0.42000
Cu718      Cu  0.16699343  0.70143464  0.50662259     0.43900
N719        N  0.13213019  0.67116514  0.50642443    -0.32600
N720        N  0.13687787  0.69092539  0.50650785    -0.26800
C721        C  0.11942052  0.70203473  0.50649982    -0.02900
C722        C  0.10307756  0.68850693  0.50640664     0.09300
C723        C  0.11160454  0.66912751  0.50636358     0.03100
H724        H  0.11871857  0.71864584  0.50655872     0.10700
H725        H  0.10352514  0.65460042  0.50629534     0.09800
N726        N  0.19831435  0.70751042  0.50667570    -0.34000
N727        N  0.21274977  0.69318019  0.50672992    -0.26200
C728        C  0.23127891  0.70231042  0.50672231    -0.01400
C729        C  0.22829282  0.72328531  0.50666108     0.07200
C730        C  0.20730911  0.72612950  0.50663225     0.05300
H731        H  0.24580565  0.69424902  0.50674651     0.10400
H732        H  0.19915673  0.74061511  0.50657283     0.09200
N733        N  0.30511253  0.85889913  0.50546550    -0.25200
N734        N  0.32484600  0.86365282  0.50522533    -0.33000
C735        C  0.32688379  0.88419526  0.50511578     0.03200
C736        C  0.30752869  0.89272910  0.50529333     0.09200
C737        C  0.29401028  0.87637252  0.50551425    -0.03900
H738        H  0.34139529  0.89228218  0.50496533     0.09900
H739        H  0.27741813  0.87707495  0.50573709     0.11100
Cu740      Cu  0.34818028  0.84212183  0.50519596     0.44200
Cu741      Cu  0.29471200  0.82873658  0.50582299     0.42000
Cu742      Cu  0.33425638  0.78858328  0.50638078     0.43900
N743        N  0.36938613  0.81848826  0.50545632    -0.32600
N744        N  0.36445837  0.79877818  0.50592534    -0.26800
C745        C  0.38181317  0.78750810  0.50600210    -0.02900
C746        C  0.39826748  0.80089117  0.50555647     0.09300
C747        C  0.38992018  0.82033721  0.50522319     0.03100
H748        H  0.38236862  0.77089490  0.50635516     0.10700
H749        H  0.39812854  0.83478679  0.50485120     0.09800
N750        N  0.30287800  0.78291062  0.50644603    -0.34000
N751        N  0.28860952  0.79740764  0.50622690    -0.26200
C752        C  0.26997813  0.78847926  0.50626237    -0.01400
C753        C  0.27273235  0.76746987  0.50651292     0.07200
C754        C  0.29367927  0.76439564  0.50662354     0.05300
H755        H  0.25554105  0.79669807  0.50609155     0.10400
H756        H  0.30167180  0.74982115  0.50678830     0.09200
O757        O  0.00093089  0.71385276  0.53741485    -0.70800
O758        O  0.00075239  0.71371682  0.47550338    -0.71800
O759        O  0.96986882  0.71414839  0.50653785    -0.60400
O760        O  0.03177537  0.71338920  0.50638260    -0.68800
O761        O  0.03117065  0.67923644  0.50645701    -0.68400
O762        O  0.96970158  0.67999162  0.50661512    -0.59700
O763        O  0.00035020  0.67955909  0.47578507    -0.72200
O764        O  0.00053183  0.67969428  0.53728474    -0.70900
Cu765      Cu  0.00084453  0.71501827  0.50645587     1.04600
Cu766      Cu  0.00042031  0.67844926  0.50653727     1.04300
C767        C  0.00077470  0.69672337  0.54699102     0.95400
C768        C  0.00054227  0.69654589  0.46600383     0.94500
C769        C  0.96014366  0.69710270  0.50660499     0.86600
C770        C  0.04111087  0.69612698  0.50640075     0.92900
O771        O  0.53130777  0.81090100  0.50559131    -0.70800
O772        O  0.46985669  0.81067242  0.50549291    -0.71800
O773        O  0.50055927  0.81070814  0.53628406    -0.60400
O774        O  0.50064490  0.81090878  0.47479602    -0.68800
O775        O  0.50077074  0.77674908  0.47447014    -0.68400
O776        O  0.50068448  0.77654728  0.53640235    -0.59700
O777        O  0.46979457  0.77651198  0.50538932    -0.72200
O778        O  0.53162336  0.77673979  0.50548773    -0.70900
Cu779      Cu  0.50058401  0.81197315  0.50554350     1.04600
Cu780      Cu  0.50071905  0.77539811  0.50543171     1.04300
C781        C  0.54109315  0.79392010  0.50555838     0.95400
C782        C  0.46019231  0.79362090  0.50543795     0.94500
C783        C  0.50062799  0.79367562  0.54598528     0.86600
C784        C  0.50074931  0.79393636  0.46499221     0.92900
N785        N  0.50049760  0.19092899  0.36914117    -0.25200
N786        N  0.50111457  0.17121064  0.37403068    -0.33000
C787        C  0.50147775  0.16933522  0.39458845     0.03200
C788        C  0.50107180  0.18877603  0.40296980     0.09200
C789        C  0.50045135  0.20217090  0.38652368    -0.03900
H790        H  0.50190727  0.15487641  0.40278840     0.09900
H791        H  0.49992453  0.21877850  0.38710258     0.11100
Cu792      Cu  0.50119748  0.14764127  0.35270293     0.44200
Cu793      Cu  0.49962715  0.20126890  0.33898719     0.42000
Cu794      Cu  0.49963794  0.16158155  0.29918805     0.43900
N795        N  0.50088049  0.12640051  0.32905796    -0.32600
N796        N  0.50028183  0.13138356  0.30936387    -0.26800
C797        C  0.50013347  0.11405901  0.29803656    -0.02900
C798        C  0.50066893  0.09755014  0.31135350     0.09300
C799        C  0.50112995  0.10583354  0.33083562     0.03100
H800        H  0.49964016  0.11356355  0.28142487     0.10700
H801        H  0.50157023  0.09756222  0.34525333     0.09800
N802        N  0.49914851  0.19290327  0.29326719    -0.34000
N803        N  0.49913666  0.20727759  0.30766656    -0.26200
C804        C  0.49889638  0.22586682  0.29861733    -0.01400
C805        C  0.49874602  0.22295402  0.27762812     0.07200
C806        C  0.49891287  0.20197321  0.27469099     0.05300
H807        H  0.49889508  0.24037597  0.30673636     0.10400
H808        H  0.49892434  0.19387114  0.26017226     0.09200
N809        N  0.49963486  0.35897209  0.20190868    -0.25200
N810        N  0.50024619  0.36402409  0.18223232    -0.33000
C811        C  0.50049083  0.38459769  0.18053023     0.03200
C812        C  0.50001095  0.39280952  0.20004248     0.09200
C813        C  0.49947388  0.37625442  0.21329775    -0.03900
H814        H  0.50091145  0.39292205  0.16614264     0.09900
H815        H  0.49894547  0.37668991  0.22990963     0.11100
Cu816      Cu  0.50053706  0.34287420  0.15850152     0.44200
Cu817      Cu  0.49897253  0.32875265  0.21200161     0.42000
Cu818      Cu  0.49938287  0.28921826  0.17208596     0.43900
N819        N  0.50051893  0.31936277  0.13710596    -0.32600
N820        N  0.50007017  0.29963040  0.14195536    -0.26800
C821        C  0.50008698  0.28842269  0.12455201    -0.02900
C822        C  0.50057390  0.30185309  0.10813245     0.09300
C823        C  0.50083380  0.32128170  0.11655054     0.03100
H824        H  0.49972364  0.27181176  0.12394168     0.10700
H825        H  0.50116768  0.33575846  0.10837853     0.09800
N826        N  0.49889138  0.28309048  0.20338229    -0.34000
N827        N  0.49874081  0.29741622  0.21782810    -0.26200
C828        C  0.49855877  0.28828525  0.23637395    -0.01400
C829        C  0.49859040  0.26731379  0.23336878     0.07200
C830        C  0.49880470  0.26447005  0.21237028     0.05300
H831        H  0.49847266  0.29634019  0.25091859     0.10400
H832        H  0.49895013  0.24998815  0.20420415     0.09200
O833        O  0.46991741  0.99512272  0.28605539    -0.70800
O834        O  0.53176438  0.99517969  0.28681682    -0.71800
O835        O  0.50087680  0.96418807  0.28644227    -0.60400
O836        O  0.50081711  0.02611604  0.28644316    -0.68800
O837        O  0.50042549  0.02588324  0.32060286    -0.68400
O838        O  0.50048472  0.96441840  0.32060210    -0.59700
O839        O  0.53115005  0.99517803  0.32097462    -0.72200
O840        O  0.46975744  0.99512153  0.32021814    -0.70900
Cu841      Cu  0.50085813  0.99515185  0.28519234     1.04600
Cu842      Cu  0.50043903  0.99515038  0.32176846     1.04300
C843        C  0.46020947  0.99511194  0.30310261     0.95400
C844        C  0.54108264  0.99518695  0.30408793     0.94500
C845        C  0.50069470  0.95466462  0.30360321     0.86600
C846        C  0.50061759  0.03563857  0.30360400     0.92900
O847        O  0.50066658  0.27682735  0.03679828    -0.70800
O848        O  0.50047368  0.27628951  0.97486218    -0.71800
O849        O  0.53147547  0.27682222  0.00575059    -0.60400
O850        O  0.46965474  0.27625019  0.00593349    -0.68800
O851        O  0.46955109  0.31041151  0.00564417    -0.68400
O852        O  0.53097207  0.31098057  0.00546416    -0.59700
O853        O  0.50016826  0.31044926  0.97480612    -0.72200
O854        O  0.50035893  0.31098397  0.03628945    -0.70900
Cu855      Cu  0.50057874  0.27530531  0.00584435     1.04600
Cu856      Cu  0.50025056  0.31187930  0.00553765     1.04300
C857        C  0.50054217  0.29406461  0.04618403     0.95400
C858        C  0.50029999  0.29336895  0.96519137     0.94500
C859        C  0.54084951  0.29405506  0.00559182     0.86600
C860        C  0.45997483  0.29331423  0.00583557     0.92900
N861        N  0.19695529  0.35903473  0.50666989    -0.25200
N862        N  0.17728055  0.36403920  0.50655435    -0.33000
C863        C  0.17551548  0.38460780  0.50651324     0.03200
C864        C  0.19498670  0.39287793  0.50660608     0.09200
C865        C  0.20828650  0.37635245  0.50670462    -0.03900
H866        H  0.16111243  0.39289010  0.50643509     0.09900
H867        H  0.22488781  0.37683313  0.50680311     0.11100
Cu868      Cu  0.15364715  0.34281742  0.50649317     0.44200
Cu869      Cu  0.20703948  0.32879548  0.50677304     0.42000
Cu870      Cu  0.16702341  0.28914677  0.50658472     0.43900
N871        N  0.13215782  0.31942071  0.50650801    -0.32600
N872        N  0.13690249  0.29965899  0.50653980    -0.26800
C873        C  0.11944123  0.28855610  0.50654034    -0.02900
C874        C  0.10310049  0.30209066  0.50650765     0.09300
C875        C  0.11163296  0.32146608  0.50648985     0.03100
H876        H  0.11873476  0.27194513  0.50656363     0.10700
H877        H  0.10355767  0.33599633  0.50646517     0.09800
N878        N  0.19835297  0.28308728  0.50663233    -0.34000
N879        N  0.21278012  0.29742473  0.50670999    -0.26200
C880        C  0.23131516  0.28830423  0.50670874    -0.01400
C881        C  0.22834380  0.26732783  0.50662720     0.07200
C882        C  0.20736097  0.26447285  0.50658001     0.05300
H883        H  0.24583647  0.29637360  0.50675680     0.10400
H884        H  0.19921829  0.24998272  0.50650944     0.09200
N885        N  0.30511796  0.13169554  0.50549868    -0.25200
N886        N  0.32484878  0.12692974  0.50524976    -0.33000
C887        C  0.32687634  0.10638620  0.50512199     0.03200
C888        C  0.30751729  0.09786326  0.50529607     0.09200
C889        C  0.29400683  0.11422845  0.50553487    -0.03900
H890        H  0.34138380  0.09829090  0.50495856     0.09900
H891        H  0.27741428  0.11353590  0.50575822     0.11100
Cu892      Cu  0.34819381  0.14844700  0.50522249     0.44200
Cu893      Cu  0.29474027  0.16186792  0.50587286     0.42000
Cu894      Cu  0.33432297  0.20199794  0.50642212     0.43900
N895        N  0.36942583  0.17205498  0.50547003    -0.32600
N896        N  0.36452028  0.19177107  0.50594438    -0.26800
C897        C  0.38188944  0.20301872  0.50600602    -0.02900
C898        C  0.39832914  0.18961442  0.50554500     0.09300
C899        C  0.38995765  0.17017966  0.50521846     0.03100
H900        H  0.38246484  0.21963114  0.50635867     0.10700
H901        H  0.39814841  0.15571936  0.50483797     0.09800
N902        N  0.30294240  0.20769172  0.50648816    -0.34000
N903        N  0.28866556  0.19320387  0.50627161    -0.26200
C904        C  0.27003883  0.20214395  0.50629593    -0.01400
C905        C  0.27280206  0.22315163  0.50653640     0.07200
C906        C  0.29375160  0.22621287  0.50665296     0.05300
H907        H  0.25559790  0.19393374  0.50612028     0.10400
H908        H  0.30175101  0.24078280  0.50680885     0.09200
O909        O  0.03179059  0.27724674  0.50648508    -0.70800
O910        O  0.96988672  0.27648571  0.50658708    -0.71800
O911        O  0.00079575  0.27696422  0.47557949    -0.60400
O912        O  0.00091955  0.27674245  0.53749357    -0.68800
O913        O  0.00051636  0.31090083  0.53740684    -0.68400
O914        O  0.00038939  0.31112137  0.47590515    -0.59700
O915        O  0.96971030  0.31064220  0.50670875    -0.72200
O916        O  0.03118613  0.31139922  0.50660393    -0.70900
Cu917      Cu  0.00086089  0.27561899  0.50653129     1.04600
Cu918      Cu  0.00043205  0.31218751  0.50665993     1.04300
C919        C  0.04112676  0.29450721  0.50653001     0.95400
C920        C  0.96015672  0.29352921  0.50666737     0.94500
C921        C  0.00059320  0.29414799  0.46610165     0.86600
C922        C  0.00075219  0.29385898  0.54709205     0.92900
O923        O  0.28308394  0.99530690  0.53629594    -0.70800
O924        O  0.28352203  0.99527738  0.47441055    -0.71800
O925        O  0.28330437  0.96433684  0.50535836    -0.60400
O926        O  0.28329539  0.02625159  0.50533148    -0.68800
O927        O  0.31741707  0.02607786  0.50557776    -0.68400
O928        O  0.31742616  0.96451740  0.50560507    -0.59700
O929        O  0.31764502  0.99528106  0.47484215    -0.72200
O930        O  0.31720895  0.99531060  0.53635783    -0.70900
Cu931      Cu  0.28207174  0.99529360  0.50534239     1.04600
Cu932      Cu  0.31860533  0.99529737  0.50560718     1.04300
C933        C  0.30014317  0.99531196  0.54596785     0.95400
C934        C  0.30071273  0.99526975  0.46498744     0.94500
C935        C  0.30042693  0.95478045  0.50547002     0.86600
C936        C  0.30041492  0.03581180  0.50543873     0.92900
N937        N  0.13657059  0.19178090  0.00570033    -0.25200
N938        N  0.13168488  0.17205917  0.00607670    -0.33000
C939        C  0.11115215  0.17017557  0.00638792     0.03200
C940        C  0.10276969  0.18961285  0.00620475     0.09200
C941        C  0.11919942  0.20302328  0.00576482    -0.03900
H942        H  0.10296871  0.15571126  0.00673454     0.09900
H943        H  0.11861693  0.21963777  0.00552907     0.11100
Cu944      Cu  0.15298032  0.14847909  0.00620091     0.44200
Cu945      Cu  0.16674266  0.20201883  0.00522645     0.42000
Cu946      Cu  0.20644022  0.16188754  0.00589788     0.43900
N947        N  0.17632376  0.12692049  0.00624061    -0.32600
N948        N  0.19605743  0.13168348  0.00614363    -0.26800
C949        C  0.20716441  0.11420669  0.00610812    -0.02900
C950        C  0.19365879  0.09782851  0.00618532     0.09300
C951        C  0.17429632  0.10636940  0.00626815     0.03100
H952        H  0.22375750  0.11351287  0.00597812     0.10700
H953        H  0.15978583  0.09827887  0.00629378     0.09800
N954        N  0.21242208  0.19327089  0.00544088    -0.34000
N955        N  0.19810282  0.20772050  0.00516835    -0.26200
C956        C  0.20722666  0.22626970  0.00495734    -0.01400
C957        C  0.22817989  0.22328280  0.00510026     0.07200
C958        C  0.23101870  0.20228004  0.00540726     0.05300
H959        H  0.19917534  0.24081123  0.00475883     0.10400
H960        H  0.24548965  0.19412232  0.00562400     0.09200
N961        N  0.30515623  0.35887325  0.00596729    -0.25200
N962        N  0.32489194  0.36362742  0.00624952    -0.33000
C963        C  0.32692942  0.38416604  0.00650776     0.03200
C964        C  0.30757442  0.39268979  0.00638654     0.09200
C965        C  0.29405639  0.37634316  0.00604118    -0.03900
H966        H  0.34143939  0.39225428  0.00675986     0.09900
H967        H  0.27746402  0.37704815  0.00585467     0.11100
Cu968      Cu  0.34825641  0.34215150  0.00627745     0.44200
Cu969      Cu  0.29465955  0.32874743  0.00552283     0.42000
Cu970      Cu  0.33407897  0.28867123  0.00580787     0.43900
N971        N  0.36934001  0.31842506  0.00626894    -0.32600
N972        N  0.36430357  0.29873859  0.00610121    -0.26800
C973        C  0.38158832  0.28736967  0.00606127    -0.02900
C974        C  0.39811209  0.30066344  0.00621308     0.09300
C975        C  0.38988336  0.32016159  0.00634123     0.03100
H976        H  0.38204732  0.27075085  0.00588140     0.10700
H977        H  0.39817669  0.33456735  0.00642729     0.09800
N978        N  0.30273584  0.28294765  0.00544549    -0.34000
N979        N  0.28846217  0.29743506  0.00532660    -0.26200
C980        C  0.26983705  0.28848890  0.00514474    -0.01400
C981        C  0.27261656  0.26747484  0.00514708     0.07200
C982        C  0.29356229  0.26442375  0.00534081     0.05300
H983        H  0.25539162  0.29669433  0.00505586     0.10400
H984        H  0.30157197  0.24985844  0.00543215     0.09200
N985        N  0.13664681  0.99537579  0.20262014    -0.25200
N986        N  0.13163828  0.99537651  0.18292347    -0.33000
C987        C  0.11109157  0.99538407  0.18116043     0.03200
C988        C  0.10283598  0.99538789  0.20065069     0.09200
C989        C  0.11935016  0.99538236  0.21396573    -0.03900
H990        H  0.10281273  0.99538009  0.16674303     0.09900
H991        H  0.11887591  0.99537728  0.23058542     0.11100
Cu992      Cu  0.15279341  0.99534794  0.15921913     0.44200
Cu993      Cu  0.16686132  0.99535019  0.21270461     0.42000
Cu994      Cu  0.20633732  0.99525280  0.17243537     0.43900
N995        N  0.17605979  0.99529165  0.13758117    -0.32600
N996        N  0.19581128  0.99525415  0.14228209    -0.26800
C997        C  0.20685759  0.99521760  0.12477446    -0.02900
C998        C  0.19329817  0.99523296  0.10843903     0.09300
C999        C  0.17396249  0.99528015  0.11703477     0.03100
H1000       H  0.22344886  0.99518128  0.12403165     0.10700
H1001       H  0.15942555  0.99530227  0.10898614     0.09800
N1002       N  0.21248410  0.99526356  0.20378663    -0.34000
N1003       N  0.19822516  0.99530054  0.21828975    -0.26200
C1004       C  0.20741626  0.99529429  0.23680663    -0.01400
C1005       C  0.22835310  0.99525138  0.23374390     0.07200
C1006       C  0.23111631  0.99523280  0.21272936     0.05300
H1007       H  0.19942045  0.99531734  0.25137704     0.10400
H1008       H  0.24555649  0.99519827  0.20452036     0.09200
N1009       N  0.30564654  0.99513724  0.36918128    -0.25200
N1010       N  0.32539050  0.99508937  0.37392589    -0.33000
C1011       C  0.32744167  0.99510118  0.39446824     0.03200
C1012       C  0.30808935  0.99515907  0.40299606     0.09200
C1013       C  0.29456150  0.99518083  0.38665310    -0.03900
H1014       H  0.34195742  0.99507676  0.40255581     0.09900
H1015       H  0.27796843  0.99523083  0.38736093     0.11100
Cu1016     Cu  0.34875372  0.99503273  0.35243714     0.44200
Cu1017     Cu  0.29505431  0.99515532  0.33908824     0.42000
Cu1018     Cu  0.33432268  0.99509319  0.29900096     0.43900
N1019       N  0.36972768  0.99502768  0.32860242    -0.32600
N1020       N  0.36457920  0.99505246  0.30894161    -0.26800
C1021       C  0.38179117  0.99506219  0.29747413    -0.02900
C1022       C  0.39839351  0.99504215  0.31067063     0.09300
C1023       C  0.39028383  0.99502086  0.33022026     0.03100
H1024       H  0.38214658  0.99509045  0.28085186     0.10700
H1025       H  0.39866664  0.99501095  0.34457769     0.09800
N1026       N  0.30298911  0.99514293  0.29329933    -0.34000
N1027       N  0.28874329  0.99516563  0.30780485    -0.26200
C1028       C  0.27010177  0.99519332  0.29888470    -0.01400
C1029       C  0.27285138  0.99518760  0.27786739     0.07200
C1030       C  0.29378890  0.99515571  0.27478785     0.05300
H1031       H  0.25566932  0.99521506  0.30710794     0.10400
H1032       H  0.30177566  0.99514192  0.26021284     0.09200
N1033       N  0.00025509  0.19129627  0.14302928    -0.25200
N1034       N  0.00061588  0.17158733  0.13808268    -0.33000
C1035       C  0.00079048  0.16977613  0.11751297     0.03200
C1036       C  0.00052558  0.18925231  0.10919035     0.09200
C1037       C  0.00018611  0.20259564  0.12568388    -0.03900
H1038       H  0.00104742  0.15534118  0.10926502     0.09900
H1039       H  0.99987913  0.21921074  0.12516314     0.11100
Cu1040     Cu  0.00073609  0.14798361  0.15940571     0.44200
Cu1041     Cu  0.99981894  0.20153639  0.17321541     0.42000
Cu1042     Cu  0.99963641  0.16178020  0.21298839     0.43900
N1043       N  0.00060340  0.12667039  0.18301744    -0.32600
N1044       N  0.00016256  0.13161072  0.20272685    -0.26800
C1045       C  0.00011045  0.11426467  0.21402260    -0.02900
C1046       C  0.00054529  0.09777898  0.20067636     0.09300
C1047       C  0.00084834  0.10610292  0.18120315     0.03100
H1048       H  0.99975249  0.11373904  0.23063659     0.10700
H1049       H  0.00117617  0.09785782  0.16676801     0.09800
N1050       N  0.99934955  0.19310116  0.21893003    -0.34000
N1051       N  0.99942601  0.20748599  0.20453997    -0.26200
C1052       C  0.99919690  0.22606895  0.21359572    -0.01400
C1053       C  0.99895859  0.22314543  0.23457915     0.07200
C1054       C  0.99907059  0.20216228  0.23750992     0.05300
H1055       H  0.99920997  0.24058187  0.20548288     0.10400
H1056       H  0.99896770  0.19405312  0.25202484     0.09200
N1057       N  0.00031377  0.29951203  0.37031563    -0.25200
N1058       N  0.00069320  0.31923817  0.37518141    -0.33000
C1059       C  0.00094399  0.32114914  0.39573556     0.03200
C1060       C  0.00070853  0.30171703  0.40414120     0.09200
C1061       C  0.00030864  0.28829122  0.38771229    -0.03900
H1062       H  0.00120569  0.33562313  0.40391479     0.09900
H1063       H  0.99997625  0.27167933  0.38831208     0.11100
Cu1064     Cu  0.00068080  0.34272984  0.35379281     0.44200
Cu1065     Cu  0.99970166  0.28920477  0.34015174     0.42000
Cu1066     Cu  0.99935140  0.32893492  0.30025213     0.43900
N1067       N  0.00046197  0.36402684  0.33022069    -0.32600
N1068       N  0.99994031  0.35911807  0.31050671    -0.26800
C1069       C  0.99982019  0.37649247  0.29925089    -0.02900
C1070       C  0.00029640  0.39294648  0.31264297     0.09300
C1071       C  0.00069358  0.38458270  0.33208703     0.03100
H1072       H  0.99936925  0.37705962  0.28264025     0.10700
H1073       H  0.00105769  0.39279201  0.34654193     0.09800
N1074       N  0.99900988  0.29758511  0.29441048    -0.34000
N1075       N  0.99914144  0.28322819  0.30883102    -0.26200
C1076       C  0.99894964  0.26462595  0.29981307    -0.01400
C1077       C  0.99868080  0.26750466  0.27882445     0.07200
C1078       C  0.99873312  0.28848189  0.27585058     0.05300
H1079       H  0.99906727  0.25012966  0.30795518     0.10400
H1080       H  0.99864773  0.29655895  0.26131763     0.09200
O1081       O  0.00047826  0.96465184  0.19130698    -0.70800
O1082       O  0.00046720  0.02611213  0.19141073    -0.71800
O1083       O  0.03119380  0.99538757  0.19133317    -0.60400
O1084       O  0.96973650  0.99537717  0.19145440    -0.68800
O1085       O  0.96961551  0.99532055  0.22561454    -0.68400
O1086       O  0.03147077  0.99533081  0.22549329    -0.59700
O1087       O  0.00053990  0.02630540  0.22557159    -0.72200
O1088       O  0.00055070  0.96434697  0.22546709    -0.70900
Cu1089     Cu  0.00046557  0.99538416  0.19020750     1.04600
Cu1090     Cu  0.00054627  0.99532365  0.22678225     1.04300
C1091       C  0.00052063  0.95485825  0.20828328     0.95400
C1092       C  0.00050817  0.03585033  0.20841838     0.94500
C1093       C  0.04096473  0.99536232  0.20832643     0.86600
C1094       C  0.96004137  0.99534670  0.20848540     0.92900
O1095       O  0.21808214  0.96416509  0.00591741    -0.70800
O1096       O  0.21807414  0.02617871  0.00592030    -0.71800
O1097       O  0.21788095  0.99517186  0.03690665    -0.60400
O1098       O  0.21827468  0.99517116  0.97489615    -0.68800
O1099       O  0.18415796  0.99516908  0.97489305    -0.68400
O1100       O  0.18376590  0.99516933  0.03647217    -0.59700
O1101       O  0.18395854  0.02596172  0.00569638    -0.72200
O1102       O  0.18396640  0.96437791  0.00569338    -0.70900
Cu1103     Cu  0.21931770  0.99517173  0.00591411     1.04600
Cu1104     Cu  0.18279744  0.99516936  0.00567614     1.04300
C1105       C  0.20094998  0.95461279  0.00582772     0.95400
C1106       C  0.20093976  0.03572916  0.00583606     0.94500
C1107       C  0.20068970  0.99517304  0.04634610     0.86600
C1108       C  0.20119891  0.99516804  0.96523494     0.92900
O1109       O  0.96961993  0.18005747  0.00676376    -0.70800
O1110       O  0.03110494  0.18000744  0.00674691    -0.71800
O1111       O  0.00038859  0.18002792  0.03749798    -0.60400
O1112       O  0.00036135  0.17994773  0.97602391    -0.68800
O1113       O  0.00038460  0.21410617  0.97572951    -0.68400
O1114       O  0.00041277  0.21418695  0.03770971    -0.59700
O1115       O  0.03131760  0.21416676  0.00670254    -0.72200
O1116       O  0.96946416  0.21421584  0.00672110    -0.70900
Cu1117     Cu  0.00036630  0.17884080  0.00676300     1.04600
Cu1118     Cu  0.00039373  0.21541261  0.00671731     1.04300
C1119       C  0.95990432  0.19708328  0.00673457     0.95400
C1120       C  0.04084566  0.19701575  0.00669806     0.94500
C1121       C  0.00041252  0.19702879  0.04724859     0.86600
C1122       C  0.00038473  0.19692559  0.96623188     0.92900
N1123       N  0.19614535  0.49529394  0.37050771    -0.25200
N1124       N  0.17648099  0.49531292  0.37554680    -0.33000
C1125       C  0.17476891  0.49532178  0.39612091     0.03200
C1126       C  0.19426521  0.49530774  0.40434652     0.09200
C1127       C  0.20751992  0.49528996  0.38779709    -0.03900
H1128       H  0.16038798  0.49533706  0.40443570     0.09900
H1129       H  0.22412274  0.49527524  0.38824106     0.11100
Cu1130     Cu  0.15280461  0.49532618  0.35435210     0.44200
Cu1131     Cu  0.20620387  0.49527514  0.34028282     0.42000
Cu1132     Cu  0.16622254  0.49527538  0.30067905     0.43900
N1133       N  0.13134425  0.49534129  0.33091133    -0.32600
N1134       N  0.13611971  0.49532200  0.31115889    -0.26800
C1135       C  0.11868523  0.49534168  0.30001404    -0.02900
C1136       C  0.10232518  0.49537533  0.31350849     0.09300
C1137       C  0.11081539  0.49537353  0.33290721     0.03100
H1138       H  0.11801185  0.49533231  0.28340112     0.10700
H1139       H  0.10270974  0.49539397  0.34741735     0.09800
N1140       N  0.19752140  0.49525581  0.29460148    -0.34000
N1141       N  0.21195423  0.49525815  0.30893594    -0.26200
C1142       C  0.23048289  0.49525303  0.29981747    -0.01400
C1143       C  0.22749180  0.49524694  0.27884526     0.07200
C1144       C  0.20651248  0.49524885  0.27598712     0.05300
H1145       H  0.24500926  0.49525661  0.30788431     0.10400
H1146       H  0.19836107  0.49524921  0.26149811     0.09200
N1147       N  0.30405000  0.49526343  0.14318393    -0.25200
N1148       N  0.32377705  0.49527231  0.13840757    -0.33000
C1149       C  0.32578780  0.49525647  0.11786570     0.03200
C1150       C  0.30642197  0.49523659  0.10935356     0.09200
C1151       C  0.29292152  0.49524181  0.12572279    -0.03900
H1152       H  0.34028942  0.49525507  0.10976364     0.09900
H1153       H  0.27632689  0.49522682  0.12503822     0.11100
Cu1154     Cu  0.34714101  0.49529055  0.15990074     0.44200
Cu1155     Cu  0.29371688  0.49526898  0.17336240     0.42000
Cu1156     Cu  0.33333277  0.49525989  0.21346570     0.43900
N1157       N  0.36838879  0.49527848  0.18349430    -0.32600
N1158       N  0.36349962  0.49526545  0.20321726    -0.26800
C1159       C  0.38087268  0.49525133  0.21446032    -0.02900
C1160       C  0.39729770  0.49525582  0.20104360     0.09300
C1161       C  0.38891823  0.49527285  0.18160775     0.03100
H1162       H  0.38145893  0.49523549  0.23107670     0.10700
H1163       H  0.39710052  0.49527673  0.16714085     0.09800
N1164       N  0.30197990  0.49525874  0.21917481    -0.34000
N1165       N  0.28768581  0.49526257  0.20469755    -0.26200
C1166       C  0.26907283  0.49526029  0.21365214    -0.01400
C1167       C  0.27187138  0.49525491  0.23465488     0.07200
C1168       C  0.29281932  0.49525410  0.23770375     0.05300
H1169       H  0.25461988  0.49526219  0.20545529     0.10400
H1170       H  0.30083830  0.49525034  0.25226732     0.09200
O1171       O  0.00014028  0.52631159  0.28794875    -0.70800
O1172       O  0.00020006  0.46442036  0.28800314    -0.71800
O1173       O  0.96919180  0.49533629  0.28756347    -0.60400
O1174       O  0.03109406  0.49539188  0.28843958    -0.68800
O1175       O  0.03042681  0.49542018  0.32259266    -0.68400
O1176       O  0.96897142  0.49536487  0.32172030    -0.59700
O1177       O  0.99974104  0.46464533  0.32216163    -0.72200
O1178       O  0.99968158  0.52614135  0.32210754    -0.70900
Cu1179     Cu  0.00017055  0.49536453  0.28674766     1.04600
Cu1180     Cu  0.99968462  0.49539451  0.32331798     1.04300
C1181       C  0.99992355  0.53586510  0.30508784     0.95400
C1182       C  0.00000244  0.45489441  0.30515823     0.94500
C1183       C  0.95943995  0.49533980  0.30459159     0.86600
C1184       C  0.04039480  0.49541071  0.30572317     0.92900
O1185       O  0.28381988  0.49520635  0.97556244    -0.70800
O1186       O  0.28281114  0.49517872  0.03746452    -0.71800
O1187       O  0.28331712  0.52613235  0.00652095    -0.60400
O1188       O  0.28331837  0.46424925  0.00649026    -0.68800
O1189       O  0.31743916  0.46442931  0.00703413    -0.68400
O1190       O  0.31743803  0.52594696  0.00706538    -0.59700
O1191       O  0.31693283  0.49517566  0.03782526    -0.72200
O1192       O  0.31793580  0.49520418  0.97627530    -0.70900
Cu1193     Cu  0.28208744  0.49519122  0.00649149     1.04600
Cu1194     Cu  0.31861793  0.49518854  0.00707342     1.04300
C1195       C  0.30108540  0.49520998  0.96627399     0.95400
C1196       C  0.29978378  0.49517780  0.04729024     0.94500
C1197       C  0.30044003  0.53567932  0.00678606     0.86600
C1198       C  0.30044099  0.45469931  0.00674147     0.92900
O1199       O  0.21957959  0.49530314  0.47562446    -0.70800
O1200       O  0.22008112  0.49529425  0.53755369    -0.71800
O1201       O  0.21982614  0.46433463  0.50658055    -0.60400
O1202       O  0.21983786  0.52626380  0.50658609    -0.68800
O1203       O  0.18571484  0.52605290  0.50684427    -0.68400
O1204       O  0.18570322  0.46456042  0.50683840    -0.59700
O1205       O  0.18595698  0.49530216  0.53759609    -0.72200
O1206       O  0.18545783  0.49531131  0.47610792    -0.70900
Cu1207     Cu  0.22107276  0.49529881  0.50657799     1.04600
Cu1208     Cu  0.18453874  0.49530717  0.50685694     1.04300
C1209       C  0.20236383  0.49530836  0.46622696     0.95400
C1210       C  0.20302075  0.49529550  0.54721830     0.94500
C1211       C  0.20268736  0.45480582  0.50670050     0.86600
C1212       C  0.20270211  0.53579999  0.50670651     0.92900
O1213       O  0.50070003  0.17947694  0.47473346    -0.70800
O1214       O  0.50063651  0.17969995  0.53622477    -0.71800
O1215       O  0.46992064  0.17974961  0.50544315    -0.60400
O1216       O  0.53137625  0.17947210  0.50551958    -0.68800
O1217       O  0.53171316  0.21363280  0.50540268    -0.68400
O1218       O  0.46988290  0.21390969  0.50532626    -0.59700
O1219       O  0.50078361  0.21386046  0.53632941    -0.72200
O1220       O  0.50084764  0.21363608  0.47439399    -0.70900
Cu1221     Cu  0.50064996  0.17842409  0.50548310     1.04600
Cu1222     Cu  0.50080901  0.21499833  0.50535680     1.04300
C1223       C  0.50080902  0.19644574  0.46492216     0.95400
C1224       C  0.50071679  0.19673563  0.54591976     0.94500
C1225       C  0.46026762  0.19680911  0.50538556     0.86600
C1226       C  0.54117263  0.19644572  0.50547710     0.92900
O1227       O  0.49961003  0.52589227  0.19095199    -0.70800
O1228       O  0.49957725  0.46444727  0.19095866    -0.71800
O1229       O  0.46885368  0.49518909  0.19114045    -0.60400
O1230       O  0.53030485  0.49515350  0.19085606    -0.68800
O1231       O  0.53064993  0.49515635  0.22501823    -0.68400
O1232       O  0.46884403  0.49519252  0.22530290    -0.59700
O1233       O  0.49974676  0.46420462  0.22512059    -0.72200
O1234       O  0.49978025  0.52614060  0.22511401    -0.70900
Cu1235     Cu  0.49957647  0.49517006  0.18980188     1.04600
Cu1236     Cu  0.49975715  0.49517321  0.22638000     1.04300
C1237       C  0.49972478  0.53565391  0.20794524     0.95400
C1238       C  0.49968086  0.45468804  0.20795404     0.94500
C1239       C  0.45921881  0.49519834  0.20820598     0.86600
C1240       C  0.54010381  0.49515221  0.20783364     0.92900
N1241       N  0.63578977  0.49514926  0.20282568    -0.25200
N1242       N  0.63099519  0.49517589  0.18307219    -0.33000
C1243       C  0.61047144  0.49518447  0.18107717     0.03200
C1244       C  0.60200804  0.49516188  0.20047143     0.09200
C1245       C  0.61836708  0.49513993  0.21397101    -0.03900
H1246       H  0.60235253  0.49520248  0.16656834     0.09900
H1247       H  0.61770360  0.49511677  0.23058380     0.11100
Cu1248     Cu  0.65234335  0.49518997  0.15957106     0.44200
Cu1249     Cu  0.66587217  0.49512526  0.21335163     0.42000
Cu1250     Cu  0.70565707  0.49516177  0.17358634     0.43900
N1251       N  0.67592076  0.49518746  0.13830978    -0.32600
N1252       N  0.69559579  0.49517754  0.14331375    -0.26800
C1253       C  0.70691568  0.49517727  0.12598862    -0.02900
C1254       C  0.69360538  0.49518729  0.10945872     0.09300
C1255       C  0.67413998  0.49519342  0.11774021     0.03100
H1256       H  0.72351686  0.49516967  0.12550391     0.10700
H1257       H  0.65973061  0.49520120  0.10946450     0.09800
N1258       N  0.71155341  0.49513978  0.20494517    -0.34000
N1259       N  0.69718557  0.49512501  0.21933487    -0.26200
C1260       C  0.70625475  0.49511408  0.23792015    -0.01400
C1261       C  0.72722378  0.49512214  0.23499390     0.07200
C1262       C  0.73012110  0.49513854  0.21400544     0.05300
H1263       H  0.69816259  0.49510264  0.25243696     0.10400
H1264       H  0.74461335  0.49514972  0.20588879     0.09200
N1265       N  0.80455212  0.49517026  0.37036199    -0.25200
N1266       N  0.82430075  0.49519608  0.37508141    -0.33000
C1267       C  0.82636600  0.49521409  0.39562992     0.03200
C1268       C  0.80701517  0.49519930  0.40418979     0.09200
C1269       C  0.79348003  0.49517139  0.38784695    -0.03900
H1270       H  0.84088943  0.49523720  0.40370342     0.09900
H1271       H  0.77688738  0.49515427  0.38856599     0.11100
Cu1272     Cu  0.84761730  0.49520979  0.35348136     0.44200
Cu1273     Cu  0.79399479  0.49514041  0.34025289     0.42000
Cu1274     Cu  0.83339424  0.49516513  0.30001516     0.43900
N1275       N  0.86873061  0.49522174  0.32971989    -0.32600
N1276       N  0.86367293  0.49520452  0.31003393    -0.26800
C1277       C  0.88095304  0.49522270  0.29865063    -0.02900
C1278       C  0.89751012  0.49525288  0.31192522     0.09300
C1279       C  0.88928545  0.49525135  0.33143354     0.03100
H1280       H  0.88138930  0.49521685  0.28203029     0.10700
H1281       H  0.89759528  0.49527230  0.34583323     0.09800
N1282       N  0.80199507  0.49513996  0.29441597    -0.34000
N1283       N  0.78776909  0.49513084  0.30894929    -0.26200
C1284       C  0.76911034  0.49511998  0.30006904    -0.01400
C1285       C  0.77180436  0.49512214  0.27905111     0.07200
C1286       C  0.79274199  0.49513511  0.27592364     0.05300
H1287       H  0.75469695  0.49511337  0.30832534     0.10400
H1288       H  0.80069176  0.49514275  0.26132813     0.09200
O1289       O  0.68486086  0.46447365  0.00682731    -0.70800
O1290       O  0.68488411  0.52597050  0.00684739    -0.71800
O1291       O  0.68515500  0.49523158  0.97607544    -0.60400
O1292       O  0.68459211  0.49521126  0.03760546    -0.68800
O1293       O  0.71871114  0.49519625  0.03812331    -0.68400
O1294       O  0.71927799  0.49521713  0.97618436    -0.59700
O1295       O  0.71900728  0.52616224  0.00715609    -0.72200
O1296       O  0.71898411  0.46425441  0.00713552    -0.70900
Cu1297     Cu  0.68369891  0.49522231  0.00682954     1.04600
Cu1298     Cu  0.72023148  0.49520694  0.00716387     1.04300
C1299       C  0.70184872  0.45472402  0.00696540     0.95400
C1300       C  0.70187841  0.53570700  0.00699299     0.94500
C1301       C  0.70223128  0.49522679  0.96648342     0.86600
C1302       C  0.70149589  0.49520051  0.04751035     0.92900
N1303       N  0.80482842  0.13168095  0.00591638    -0.25200
N1304       N  0.82457866  0.12701601  0.00638389    -0.33000
C1305       C  0.82671195  0.10648128  0.00651805     0.03200
C1306       C  0.80739823  0.09785709  0.00612249     0.09200
C1307       C  0.79380908  0.11415617  0.00574450    -0.03900
H1308       H  0.84125901  0.09846160  0.00684761     0.09900
H1309       H  0.77722357  0.11337878  0.00534792     0.11100
Cu1310     Cu  0.84779286  0.14867226  0.00669663     0.44200
Cu1311     Cu  0.79432399  0.16181404  0.00546875     0.42000
Cu1312     Cu  0.83390672  0.20213863  0.00520444     0.43900
N1313       N  0.86903603  0.17226781  0.00653206    -0.32600
N1314       N  0.86413169  0.19197915  0.00592643    -0.26800
C1315       C  0.88150535  0.20322513  0.00589551    -0.02900
C1316       C  0.89794639  0.18982046  0.00651764     0.09300
C1317       C  0.88956631  0.17039010  0.00690391    -0.16100
H1318       H  0.88208497  0.21983486  0.00543645     0.10700
H1319       H  0.89775128  0.15592919  0.00737907     0.09800
N1320       N  0.80249090  0.20767586  0.00494448    -0.34000
N1321       N  0.78823975  0.19315647  0.00506039    -0.26200
C1322       C  0.76959604  0.20206394  0.00494488    -0.01400
C1323       C  0.77232307  0.22307691  0.00474677     0.07200
C1324       C  0.79326338  0.22617656  0.00475478     0.05300
H1325       H  0.75516886  0.19382798  0.00504313     0.10400
H1326       H  0.80123435  0.24076249  0.00468027     0.09200
N1327       N  0.63650423  0.29947849  0.00537652    -0.25200
N1328       N  0.63166692  0.31921078  0.00588079    -0.33000
C1329       C  0.61113786  0.32115051  0.00605225     0.03200
C1330       C  0.60272132  0.30173447  0.00563901     0.09200
C1331       C  0.61911110  0.28828726  0.00521500    -0.03900
H1332       H  0.60298531  0.33563289  0.00642819     0.09900
H1333       H  0.61848827  0.27167807  0.00480800     0.11100
Cu1334     Cu  0.65301345  0.34270555  0.00625148     0.44200
Cu1335     Cu  0.66660548  0.28905250  0.00494881     0.42000
Cu1336     Cu  0.70643340  0.32871072  0.00558701     0.43900
N1337       N  0.67661720  0.36392828  0.00637419    -0.32600
N1338       N  0.69629735  0.35894843  0.00612127    -0.26800
C1339       C  0.70760001  0.37628577  0.00625314    -0.02900
C1340       C  0.69427251  0.39278790  0.00660761     0.09300
C1341       C  0.67481821  0.38448946  0.00667096     0.03100
H1342       H  0.72419961  0.37679623  0.00608611     0.10700
H1343       H  0.66040260  0.39274673  0.00689499     0.09800
N1344       N  0.71229857  0.29734931  0.00511112    -0.34000
N1345       N  0.69789267  0.28299715  0.00486847    -0.26200
C1346       C  0.70690391  0.26438996  0.00465537    -0.01400
C1347       C  0.72787951  0.26725809  0.00476582     0.07200
C1348       C  0.73084078  0.28823947  0.00505743     0.05300
H1349       H  0.69876697  0.24989712  0.00447162     0.10400
H1350       H  0.74535725  0.29631497  0.00525013     0.09200
N1351       N  0.80526034  0.99532536  0.14245297    -0.25200
N1352       N  0.82503109  0.99530810  0.13785076    -0.33000
C1353       C  0.82722700  0.99529027  0.11732100     0.03200
C1354       C  0.80793535  0.99529607  0.10863012     0.09200
C1355       C  0.79429552  0.99531848  0.12488709    -0.03900
H1356       H  0.84180163  0.99527391  0.10935047     0.09900
H1357       H  0.77770801  0.99532877  0.12405221     0.11100
Cu1358     Cu  0.84820299  0.99530992  0.15956594     0.44200
Cu1359     Cu  0.79461104  0.99535746  0.17255877     0.42000
Cu1360     Cu  0.83404439  0.99539443  0.21296598     0.43900
N1361       N  0.86932844  0.99532834  0.18327606    -0.32600
N1362       N  0.86431277  0.99536261  0.20296595    -0.26800
C1363       C  0.88161954  0.99536968  0.21431829    -0.02900
C1364       C  0.89813574  0.99533764  0.20100536     0.09300
C1365       C  0.88987119  0.99531226  0.18151766     0.03100
H1366       H  0.88210187  0.99539693  0.23093773     0.10700
H1367       H  0.89814178  0.99528621  0.16710107     0.09800
N1368       N  0.80263297  0.99539997  0.21844726    -0.34000
N1369       N  0.78840274  0.99538638  0.20390213    -0.26200
C1370       C  0.76974724  0.99538809  0.21279086    -0.01400
C1371       C  0.77245568  0.99540348  0.23381728     0.07200
C1372       C  0.79339209  0.99541027  0.23693648     0.05300
H1373       H  0.75532669  0.99537530  0.20453672     0.10400
H1374       H  0.80135381  0.99541829  0.25153099     0.09200
N1375       N  0.63669645  0.99528877  0.31014863    -0.25200
N1376       N  0.63174735  0.99522388  0.32985668    -0.33000
C1377       C  0.61120328  0.99518779  0.33166630     0.03200
C1378       C  0.60290260  0.99523176  0.31218692     0.09200
C1379       C  0.61937325  0.99529543  0.29884375    -0.03900
H1380       H  0.60296213  0.99513424  0.34609997     0.09900
H1381       H  0.61885276  0.99534254  0.28222568     0.11100
Cu1382     Cu  0.65301378  0.99518767  0.35345411     0.44200
Cu1383     Cu  0.66684639  0.99535566  0.29989759     0.42000
Cu1384     Cu  0.70659681  0.99523145  0.33957704     0.43900
N1385       N  0.67661392  0.99516807  0.37471257    -0.32600
N1386       N  0.69631161  0.99518264  0.36978809    -0.26800
C1387       C  0.70756540  0.99517300  0.38716511    -0.02900
C1388       C  0.69419586  0.99515100  0.40363307     0.09300
C1389       C  0.67476371  0.99514880  0.39527290     0.03100
H1390       H  0.72416448  0.99518696  0.38772596     0.10700
H1391       H  0.66032603  0.99513948  0.40348885     0.09800
N1392       N  0.71253278  0.99531010  0.30820568    -0.34000
N1393       N  0.69812368  0.99536060  0.29384998    -0.26200
C1394       C  0.70711947  0.99540116  0.27523924    -0.01400
C1395       C  0.72809636  0.99537508  0.27809493     0.07200
C1396       C  0.73107229  0.99531718  0.29908587     0.05300
H1397       H  0.69896898  0.99544161  0.26074932     0.10400
H1398       H  0.74559513  0.99527999  0.30715772     0.09200
O1399       O  0.78323427  0.96428049  0.00615027    -0.70800
O1400       O  0.78325142  0.02622138  0.00614253    -0.71800
O1401       O  0.78295530  0.99524986  0.97518128    -0.60400
O1402       O  0.78352741  0.99525618  0.03711637    -0.68800
O1403       O  0.81764479  0.99524528  0.03664400    -0.68400
O1404       O  0.81707714  0.99523881  0.97508047    -0.59700
O1405       O  0.81737089  0.02602311  0.00585172    -0.72200
O1406       O  0.81735367  0.96445761  0.00585960    -0.70900
Cu1407     Cu  0.78200971  0.99525193  0.00615801     1.04600
Cu1408     Cu  0.81853761  0.99524032  0.00584727     1.04300
C1409       C  0.80035610  0.95471901  0.00600767     0.95400
C1410       C  0.80037813  0.03577185  0.00599774     0.94500
C1411       C  0.79999535  0.99524588  0.96548282     0.86600
C1412       C  0.80073450  0.99525465  0.04653048     0.92900
N1413       N  0.63684654  0.19117509  0.50626419    -0.25200
N1414       N  0.63199944  0.17144653  0.50572146    -0.33000
C1415       C  0.61147195  0.16952411  0.50537778     0.03200
C1416       C  0.60306265  0.18894472  0.50571574     0.09200
C1417       C  0.61945858  0.20238130  0.50628025    -0.03900
H1418       H  0.60331346  0.15504767  0.50494451     0.09900
H1419       H  0.61884326  0.21899104  0.50668895     0.11100
Cu1420     Cu  0.65331974  0.14791509  0.50555702     0.44200
Cu1421     Cu  0.66695998  0.20155123  0.50694617     0.42000
Cu1422     Cu  0.70673426  0.16174785  0.50677716     0.43900
N1423       N  0.67685787  0.12660405  0.50575380    -0.32600
N1424       N  0.69654793  0.13152538  0.50621744    -0.26800
C1425       C  0.70780064  0.11415136  0.50632754    -0.02900
C1426       C  0.69442980  0.09768219  0.50591156     0.09300
C1427       C  0.67500241  0.10604535  0.50555813     0.03100
H1428       H  0.72439516  0.11359292  0.50672665     0.10700
H1429       H  0.66056470  0.09783153  0.50523513     0.09800
N1430       N  0.71264068  0.19310109  0.50726761    -0.34000
N1431       N  0.69826870  0.20749259  0.50733691    -0.26200
C1432       C  0.70732671  0.22607485  0.50759633    -0.01400
C1433       C  0.72829416  0.22315040  0.50769871     0.07200
C1434       C  0.73120469  0.20216181  0.50748340     0.05300
H1435       H  0.69922677  0.24059032  0.50765454     0.10400
H1436       H  0.74570151  0.19404748  0.50743774     0.09200
N1437       N  0.80497131  0.35883555  0.50717362    -0.25200
N1438       N  0.82469440  0.36364675  0.50688485    -0.33000
C1439       C  0.82665241  0.38420418  0.50671565     0.03200
C1440       C  0.80725966  0.39267514  0.50689903     0.09200
C1441       C  0.79381037  0.37626938  0.50718973    -0.03900
H1442       H  0.84113307  0.39234492  0.50648210     0.09900
H1443       H  0.77721575  0.37691158  0.50740284     0.11100
Cu1444     Cu  0.84813296  0.34216509  0.50675045     0.44200
Cu1445     Cu  0.79455900  0.32867873  0.50752976     0.42000
Cu1446     Cu  0.83416030  0.28864222  0.50755849     0.43900
N1447       N  0.86935468  0.31848911  0.50683291    -0.32600
N1448       N  0.86438301  0.29878621  0.50715457    -0.26800
C1449       C  0.88170889  0.28746809  0.50716321    -0.02900
C1450       C  0.89820760  0.30080130  0.50682862     0.09300
C1451       C  0.88990176  0.32027821  0.50662788     0.03100
H1452       H  0.88221498  0.27085124  0.50740643     0.10700
H1453       H  0.89815101  0.33470680  0.50637322     0.09800
N1454       N  0.80280005  0.28288326  0.50774761    -0.34000
N1455       N  0.78849412  0.29734329  0.50773705    -0.26200
C1456       C  0.76988589  0.28836496  0.50781655    -0.01400
C1457       C  0.77270002  0.26736067  0.50788245     0.07200
C1458       C  0.79365350  0.26434306  0.50783257     0.05300
H1459       H  0.75542569  0.29654487  0.50779382     0.10400
H1460       H  0.80168627  0.24978979  0.50782474     0.09200
O1461       O  0.71901771  0.99518998  0.53702339    -0.70800
O1462       O  0.71889463  0.99515723  0.47511480    -0.71800
O1463       O  0.71898356  0.02613806  0.50605564    -0.60400
O1464       O  0.71893425  0.96420791  0.50608797    -0.68800
O1465       O  0.68481158  0.96443612  0.50613663    -0.68400
O1466       O  0.68486050  0.02596488  0.50610448    -0.59700
O1467       O  0.68477113  0.99518476  0.47536888    -0.72200
O1468       O  0.68489213  0.99521711  0.53686473    -0.70900
Cu1469     Cu  0.72019368  0.99517217  0.50606996     1.04600
Cu1470     Cu  0.68365911  0.99520169  0.50612227     1.04300
C1471       C  0.70190114  0.99520992  0.54658261     0.95400
C1472       C  0.70174466  0.99516573  0.46559985     0.94500
C1473       C  0.70186034  0.03569658  0.50607002     0.86600
C1474       C  0.70179670  0.95467679  0.50611052     0.92900
O1475       O  0.81674880  0.49520896  0.47597392    -0.70800
O1476       O  0.81687036  0.49521009  0.53749307    -0.71800
O1477       O  0.81678356  0.46444821  0.50673853    -0.60400
O1478       O  0.81683878  0.52597055  0.50673764    -0.68800
O1479       O  0.78271878  0.52623087  0.50678769    -0.68400
O1480       O  0.78266322  0.46424988  0.50678858    -0.59700
O1481       O  0.78275015  0.49524157  0.53777428    -0.72200
O1482       O  0.78262792  0.49524018  0.47580054    -0.70900
Cu1483     Cu  0.81797439  0.49520828  0.50673300     1.04600
Cu1484     Cu  0.78144593  0.49524183  0.50678865     1.04300
C1485       C  0.79974917  0.49522344  0.46623791     0.95400
C1486       C  0.79990910  0.49522710  0.54728227     0.94500
C1487       C  0.79979587  0.45469898  0.50676853     0.86600
C1488       C  0.79986771  0.53575050  0.50676943     0.92900
C1489       C  0.80243558  0.41423575  0.50683414    -0.11200
C1490       C  0.80020405  0.43263779  0.50679220    -0.12700
C1491       C  0.69931620  0.07614887  0.50597969    -0.11200
C1492       C  0.70149493  0.05774764  0.50603166    -0.12700
C1493       C  0.75703047  0.25181666  0.50788276    -0.11200
C1494       C  0.74390365  0.23875284  0.50783080    -0.12700
C1495       C  0.69909813  0.99514989  0.42516076    -0.11200
C1496       C  0.70131832  0.99515466  0.44355516    -0.12700
C1497       C  0.80337286  0.99528033  0.08701038    -0.11200
C1498       C  0.80127153  0.99526681  0.06859137    -0.12700
C1499       C  0.75673394  0.99539966  0.24931667    -0.11200
C1500       C  0.74364569  0.99539128  0.26242318    -0.12700
C1501       C  0.80073959  0.05783238  0.00601445    -0.11200
C1502       C  0.80278787  0.07625399  0.00605091    -0.12700
C1503       C  0.74345644  0.25161912  0.00470500    -0.11200
C1504       C  0.75659454  0.23856419  0.00469777    -0.12700
C1505       C  0.70145303  0.43268407  0.00690203    -0.11200
C1506       C  0.69922540  0.41429517  0.00678905    -0.12700
C1507       C  0.80229704  0.49521083  0.42577038    -0.11200
C1508       C  0.80012602  0.49521882  0.44417789    -0.12700
C1509       C  0.70091641  0.49519395  0.06956092    -0.11200
C1510       C  0.69859276  0.49519024  0.08794612    -0.12700
C1511       C  0.74285678  0.49511901  0.25058174    -0.11200
C1512       C  0.75604378  0.49511895  0.26359141    -0.12700
C1513       C  0.56211306  0.49515019  0.20738918    -0.11200
C1514       C  0.58048732  0.49515446  0.20523592    -0.12700
C1515       C  0.58155499  0.19378472  0.50560365    -0.11200
C1516       C  0.56318432  0.19598648  0.50552827    -0.12700
C1517       C  0.91900372  0.49528493  0.30690048    -0.11200
C1518       C  0.93739503  0.49531185  0.30473179    -0.12700
C1519       C  0.30172396  0.49520724  0.08777632    -0.11200
C1520       C  0.29980259  0.49518728  0.06934531    -0.12700
C1521       C  0.41881113  0.49523547  0.20588151    -0.11200
C1522       C  0.43719959  0.49521748  0.20795660    -0.12700
C1523       C  0.08078785  0.49540035  0.30871315    -0.11200
C1524       C  0.06241800  0.49541282  0.30641198    -0.12700
C1525       C  0.19934998  0.49530946  0.42582556    -0.11200
C1526       C  0.20176922  0.49530991  0.44419139    -0.12700
C1527       C  0.24305525  0.49524824  0.26321342    -0.11200
C1528       C  0.25618776  0.49525093  0.25016688    -0.12700
C1529       C  0.93786983  0.19675099  0.00669407    -0.11200
C1530       C  0.91947498  0.19465437  0.00662280    -0.12700
C1531       C  0.93801327  0.99534135  0.20814975    -0.11200
C1532       C  0.91963025  0.99533866  0.20597367    -0.12700
C1533       C  0.00019491  0.41446682  0.30775321    -0.11200
C1534       C  0.00009854  0.43285775  0.30555449    -0.12700
C1535       C  0.00044778  0.19659051  0.06929780    -0.11200
C1536       C  0.00048589  0.19424618  0.08767923    -0.12700
C1537       C  0.00052461  0.05789332  0.20799575    -0.11200
C1538       C  0.00054013  0.07627257  0.20566408    -0.12700
C1539       C  0.99873345  0.23875342  0.25017691    -0.11200
C1540       C  0.99864277  0.25186674  0.26325486    -0.12700
C1541       C  0.19797585  0.99520319  0.08683454    -0.11200
C1542       C  0.20016274  0.99518422  0.06841953    -0.12700
C1543       C  0.08135537  0.99537994  0.20564371    -0.11200
C1544       C  0.06298643  0.99537085  0.20790000    -0.12700
C1545       C  0.24403571  0.99522788  0.24927579    -0.11200
C1546       C  0.25715801  0.99520906  0.26234686    -0.12700
C1547       C  0.30286954  0.41425253  0.00654664    -0.11200
C1548       C  0.30079149  0.43265885  0.00665907    -0.12700
C1549       C  0.19838774  0.07623055  0.00605247    -0.11200
C1550       C  0.20053640  0.05780858  0.00593448    -0.12700
C1551       C  0.06287177  0.19663503  0.00659081    -0.11200
C1552       C  0.08125436  0.19447319  0.00642935    -0.12700
C1553       C  0.24382059  0.23886025  0.00506652    -0.11200
C1554       C  0.25693548  0.25193898  0.00508069    -0.12700
C1555       C  0.30121392  0.99524066  0.44295071    -0.11200
C1556       C  0.30337568  0.99520543  0.42455500    -0.12700
C1557       C  0.93811243  0.29369861  0.50671599    -0.11200
C1558       C  0.91971847  0.29584757  0.50676580    -0.12700
C1559       C  0.00066895  0.29685132  0.42567193    -0.11200
C1560       C  0.00062244  0.29461428  0.44406131    -0.12700
C1561       C  0.30281392  0.07628510  0.50534250    -0.11200
C1562       C  0.30075451  0.05786768  0.50538976    -0.12700
C1563       C  0.41984821  0.19445927  0.50546620    -0.11200
C1564       C  0.43823982  0.19654581  0.50540957    -0.12700
C1565       C  0.08154233  0.29736291  0.50649955    -0.11200
C1566       C  0.06315945  0.29513701  0.50650396    -0.12700
C1567       C  0.19998917  0.41437805  0.50663757    -0.11200
C1568       C  0.20227255  0.43276254  0.50666927    -0.12700
C1569       C  0.24392924  0.25169341  0.50659581    -0.11200
C1570       C  0.25708637  0.23865549  0.50657238    -0.12700
C1571       C  0.58121698  0.29689048  0.00559679    -0.11200
C1572       C  0.56285583  0.29462308  0.00557901    -0.12700
C1573       C  0.43795959  0.29351136  0.00596600    -0.11200
C1574       C  0.41958335  0.29566429  0.00608966    -0.12700
C1575       C  0.56308721  0.99520460  0.30476128    -0.11200
C1576       C  0.58143084  0.99521784  0.30718149    -0.12700
C1577       C  0.43819422  0.99508728  0.30328237    -0.11200
C1578       C  0.41983003  0.99506540  0.30553099    -0.12700
C1579       C  0.50059925  0.29465735  0.06822239    -0.11200
C1580       C  0.50060954  0.29697636  0.08660250    -0.12700
C1581       C  0.49987239  0.41428408  0.20513004    -0.11200
C1582       C  0.49976000  0.43265305  0.20750392    -0.12700
C1583       C  0.50063721  0.07605433  0.30634727    -0.11200
C1584       C  0.50062188  0.05767614  0.30403456    -0.12700
C1585       C  0.50100180  0.19367847  0.42449470    -0.11200
C1586       C  0.50090936  0.19595882  0.44288005    -0.12700
C1587       C  0.49858502  0.25166178  0.24892896    -0.11200
C1588       C  0.49863019  0.23856157  0.26202348    -0.12700
C1589       C  0.43816648  0.79390445  0.50545133    -0.11200
C1590       C  0.41977855  0.79601626  0.50549558    -0.12700
C1591       C  0.30283343  0.91430858  0.50536205    -0.11200
C1592       C  0.30077304  0.93272553  0.50542203    -0.12700
C1593       C  0.08152279  0.69324785  0.50637790    -0.11200
C1594       C  0.06314230  0.69549039  0.50637216    -0.12700
C1595       C  0.20000610  0.57622726  0.50663284    -0.11200
C1596       C  0.20229314  0.55784315  0.50667269    -0.12700
C1597       C  0.24386536  0.73892882  0.50661339    -0.11200
C1598       C  0.25701418  0.75197242  0.50657174    -0.12700
C1599       C  0.00054692  0.69610855  0.44396375    -0.11200
C1600       C  0.00056871  0.69388541  0.42557327    -0.12700
C1601       C  0.00004140  0.57629484  0.30763601    -0.11200
C1602       C  0.99997685  0.55790248  0.30544932    -0.12700
C1603       C  0.00047764  0.79632834  0.08757336    -0.11200
C1604       C  0.00043333  0.79394986  0.06919766    -0.12700
C1605       C  0.00055565  0.91444135  0.20543591    -0.11200
C1606       C  0.00053914  0.93281700  0.20779326    -0.12700
C1607       C  0.99861010  0.75200977  0.25009116    -0.11200
C1608       C  0.99849170  0.73889927  0.26317095    -0.12700
C1609       C  0.30287654  0.57612428  0.00666887    -0.11200
C1610       C  0.30079190  0.55771913  0.00674104    -0.12700
C1611       C  0.06286279  0.79375509  0.00650142    -0.11200
C1612       C  0.08124665  0.79590562  0.00633671    -0.12700
C1613       C  0.19840181  0.91411240  0.00600105    -0.11200
C1614       C  0.20055134  0.93253383  0.00590725    -0.12700
C1615       C  0.24382337  0.75149148  0.00522642    -0.11200
C1616       C  0.25694650  0.73842033  0.00527738    -0.12700
C1617       C  0.43798343  0.69688619  0.00608196    -0.11200
C1618       C  0.41960873  0.69471574  0.00623976    -0.12700
C1619       C  0.50099343  0.79669075  0.42456644    -0.11200
C1620       C  0.50087099  0.79441582  0.44295152    -0.12700
C1621       C  0.50077395  0.91425076  0.30635352    -0.11200
C1622       C  0.50073586  0.93262780  0.30403442    -0.12700
C1623       C  0.50064501  0.69576521  0.06828586    -0.11200
C1624       C  0.50065543  0.69344017  0.08666470    -0.12700
C1625       C  0.49995938  0.57605629  0.20511692    -0.11200
C1626       C  0.49982840  0.55768782  0.20749042    -0.12700
C1627       C  0.49870148  0.73863466  0.24902455    -0.11200
C1628       C  0.49875082  0.75172996  0.26212284    -0.12700
C1629       C  0.30393435  0.49522399  0.92582301    -0.11200
C1630       C  0.30174773  0.49521929  0.94422543    -0.12700
C1631       C  0.42075925  0.49523374  0.80741326    -0.11200
C1632       C  0.43915062  0.49523719  0.80529104    -0.12700
C1633       C  0.08230360  0.49528742  0.70464354    -0.11200
C1634       C  0.06391146  0.49528589  0.70680262    -0.12700
C1635       C  0.20062606  0.49527685  0.58766839    -0.11200
C1636       C  0.20278586  0.49528717  0.56926752    -0.12700
C1637       C  0.24471215  0.49525881  0.75045157    -0.11200
C1638       C  0.25786508  0.49525287  0.76350372    -0.12700
C1639       C  0.30235932  0.99531637  0.58642772    -0.11200
C1640       C  0.30034889  0.99531679  0.56801195    -0.12700
C1641       C  0.08109388  0.99529713  0.80713709    -0.11200
C1642       C  0.06269595  0.99528365  0.80508134    -0.12700
C1643       C  0.19880462  0.99516070  0.92472554    -0.11200
C1644       C  0.20092265  0.99516277  0.94315251    -0.12700
C1645       C  0.25665927  0.99537408  0.74882579    -0.11200
C1646       C  0.24354753  0.99536293  0.76190774    -0.12700
C1647       C  0.00093487  0.29634844  0.58753464    -0.11200
C1648       C  0.00084706  0.29417496  0.56913670    -0.12700
C1649       C  0.00151588  0.41431519  0.70513435    -0.11200
C1650       C  0.00147412  0.43271306  0.70732918    -0.12700
C1651       C  0.00033841  0.07619000  0.80767668    -0.11200
C1652       C  0.00026514  0.05780970  0.80530686    -0.12700
C1653       C  0.00046212  0.19408619  0.92580189    -0.11200
C1654       C  0.00042363  0.19643975  0.94418275    -0.12700
C1655       C  0.99893269  0.25185163  0.75018160    -0.11200
C1656       C  0.99892158  0.23876491  0.76329601    -0.12700
C1657       C  0.43769565  0.99519172  0.70675100    -0.11200
C1658       C  0.41930930  0.99520028  0.70466516    -0.12700
C1659       C  0.50031814  0.29582495  0.92474831    -0.11200
C1660       C  0.50028073  0.29361629  0.94314361    -0.12700
C1661       C  0.50184691  0.41427219  0.80763458    -0.11200
C1662       C  0.50178643  0.43268030  0.80551139    -0.12700
C1663       C  0.50018043  0.05777781  0.70624797    -0.11200
C1664       C  0.50023239  0.07617407  0.70402252    -0.12700
C1665       C  0.50074587  0.19639400  0.56796619    -0.11200
C1666       C  0.50077700  0.19417337  0.58636010    -0.12700
C1667       C  0.49904529  0.23873508  0.74893826    -0.11200
C1668       C  0.49909310  0.25183929  0.76203719    -0.12700
C1669       C  0.00098878  0.69418871  0.58742949    -0.11200
C1670       C  0.00088887  0.69637892  0.56903410    -0.12700
C1671       C  0.00147874  0.57621277  0.70504665    -0.11200
C1672       C  0.00143350  0.55781687  0.70725841    -0.12700
C1673       C  0.00040945  0.79391426  0.94409396    -0.11200
C1674       C  0.00044322  0.79626922  0.92571432    -0.12700
C1675       C  0.00030937  0.93267736  0.80534480    -0.11200
C1676       C  0.00037514  0.91429661  0.80771236    -0.12700
C1677       C  0.99895524  0.75176182  0.76318191    -0.11200
C1678       C  0.99900300  0.73867797  0.75006566    -0.12700
C1679       C  0.69930884  0.99524359  0.58700431    -0.11200
C1680       C  0.70154604  0.99522621  0.56861940    -0.12700
C1681       C  0.58097651  0.99529123  0.70391384    -0.11200
C1682       C  0.56260048  0.99527074  0.70604299    -0.12700
C1683       C  0.80214810  0.99526207  0.92499888    -0.11200
C1684       C  0.80016511  0.99525257  0.94342428    -0.12700
C1685       C  0.91926806  0.99521065  0.80714197    -0.11200
C1686       C  0.93767217  0.99521300  0.80511128    -0.12700
C1687       C  0.75642156  0.99546640  0.76264821    -0.11200
C1688       C  0.74324174  0.99546394  0.74963829    -0.12700
C1689       C  0.70149577  0.55774858  0.00694709    -0.11200
C1690       C  0.69927026  0.57613890  0.00684944    -0.12700
C1691       C  0.56288805  0.69584766  0.00563237    -0.11200
C1692       C  0.58124948  0.69357348  0.00565198    -0.12700
C1693       C  0.93786167  0.79374069  0.00659519    -0.11200
C1694       C  0.91946798  0.79584599  0.00652581    -0.12700
C1695       C  0.80070743  0.93265745  0.00602891    -0.11200
C1696       C  0.80275342  0.91423486  0.00606880    -0.12700
C1697       C  0.75660906  0.75189686  0.00477061    -0.11200
C1698       C  0.74347923  0.73883375  0.00478123    -0.12700
C1699       C  0.69996323  0.49524050  0.92601199    -0.11200
C1700       C  0.70203621  0.49523303  0.94442765    -0.12700
C1701       C  0.58249009  0.49524750  0.80802851    -0.11200
C1702       C  0.56412235  0.49524623  0.80578189    -0.12700
C1703       C  0.80267500  0.49523142  0.58773272    -0.11200
C1704       C  0.80037828  0.49523047  0.56933960    -0.12700
C1705       C  0.92045804  0.49521668  0.70566590    -0.11200
C1706       C  0.93885278  0.49523255  0.70780696    -0.12700
C1707       C  0.74488814  0.49500756  0.76343051    -0.11200
C1708       C  0.75797981  0.49500561  0.75033523    -0.12700
C1709       C  0.69920567  0.91422616  0.50604533    -0.11200
C1710       C  0.70139923  0.93262576  0.50608820    -0.12700
C1711       C  0.58147490  0.79656253  0.50569019    -0.11200
C1712       C  0.56310437  0.79436448  0.50561459    -0.12700
C1713       C  0.80031171  0.55781069  0.50680046    -0.11200
C1714       C  0.80255526  0.57621084  0.50685262    -0.12700
C1715       C  0.91970952  0.69474999  0.50673825    -0.11200
C1716       C  0.93809997  0.69692485  0.50667411    -0.12700
C1717       C  0.74384357  0.75163467  0.50769324    -0.11200
C1718       C  0.75697872  0.73857800  0.50774400    -0.12700
C1719       C  0.50032247  0.69465060  0.92481642    -0.11200
C1720       C  0.50028789  0.69685527  0.94321178    -0.12700
C1721       C  0.50183549  0.57620644  0.80769459    -0.11200
C1722       C  0.50177685  0.55780020  0.80555853    -0.12700
C1723       C  0.50066288  0.79402497  0.56803040    -0.11200
C1724       C  0.50071267  0.79625258  0.58642265    -0.12700
C1725       C  0.50034624  0.91426279  0.70408072    -0.11200
C1726       C  0.50027318  0.93265923  0.70630292    -0.12700
C1727       C  0.49897987  0.75171701  0.74899848    -0.11200
C1728       C  0.49900833  0.73861841  0.76210215    -0.12700
loop_ 
_geom_bond_atom_site_label_1 
_geom_bond_atom_site_label_2 
_geom_bond_distance 
_geom_bond_site_symmetry_2 
_ccdc_geom_bond_type 
N1            N2   1.323       .  A
N1            C5   1.347       .  A
N1           Cu9   2.075       .  S
N2            C3   1.343       .  A
N2           Cu8   2.068       .  S
C3            C4   1.378       .  A
C3            H6   1.082       .  S
C4            C5   1.381       .  A
C4         C1724   1.437       .  S
C5            H7   1.082       .  S
Cu8          N11   2.068       .  S
Cu9          N19   2.076       .  S
Cu10         N12   2.076       .  S
Cu10         N18   2.076       .  S
N11          N12   1.323       .  A
N11          C15   1.344       .  A
N12          C13   1.347       .  A
C13          C14   1.381       .  A
C13          H16   1.082       .  S
C14          C15   1.378       .  A
C14        C1725   1.437       .  S
C15          H17   1.082       .  S
N18          N19   1.324       .  A
N18          C22   1.346       .  A
N19          C20   1.345       .  A
C20          C21   1.379       .  A
C20          H23   1.082       .  S
C21          C22   1.379       .  A
C21        C1727   1.437       .  S
C22          H24   1.082       .  S
N25          N26   1.323       .  A
N25          C29   1.347       .  A
N25         Cu33   2.076       .  S
N26          C27   1.343       .  A
N26         Cu32   2.068       .  S
C27          C28   1.378       .  A
C27          H30   1.082       .  S
C28          C29   1.381       .  A
C28        C1721   1.437       .  S
C29          H31   1.082       .  S
Cu32         N35   2.068       .  S
Cu33         N43   2.077       .  S
Cu34         N36   2.075       .  S
Cu34         N42   2.076       .  S
N35          N36   1.322       .  A
N35          C39   1.343       .  A
N36          C37   1.347       .  A
C37          C38   1.381       .  A
C37          H40   1.082       .  S
C38          C39   1.378       .  A
C38        C1719   1.437       .  S
C39          H41   1.082       .  S
N42          N43   1.324       .  A
N42          C46   1.345       .  A
N43          C44   1.346       .  A
C44          C45   1.379       .  A
C44          H47   1.082       .  S
C45          C46   1.379       .  A
C45        C1728   1.437       .  S
C46          H48   1.082       .  S
N49          N50   1.323       .  A
N49          C53   1.347       .  A
N49         Cu57   2.076       .  S
N50          C51   1.344       .  A
N50         Cu56   2.070       .  S
C51          C52   1.378       .  A
C51          H54   1.082       .  S
C52          C53   1.381       .  A
C52        C1714   1.438       .  S
C53          H55   1.082       .  S
Cu56         N59   2.070       .  S
Cu57         N67   2.077       .  S
Cu58         N60   2.077       .  S
Cu58         N66   2.077       .  S
N59          N60   1.323       .  A
N59          C63   1.344       .  A
N60          C61   1.348       .  A
C61          C62   1.381       .  A
C61          H64   1.082       .  S
C62          C63   1.378       .  A
C62        C1715   1.438       .  S
C63          H65   1.082       .  S
N66          N67   1.324       .  A
N66          C70   1.346       .  A
N67          C68   1.346       .  A
C68          C69   1.379       .  A
C68          H71   1.082       .  S
C69          C70   1.379       .  A
C69        C1718   1.437       .  S
C70          H72   1.082       .  S
N73          N74   1.323       .  A
N73          C77   1.347       .  A
N73         Cu81   2.075       .  S
N74          C75   1.343       .  A
N74         Cu80   2.067       .  S
C75          C76   1.378       .  A
C75          H78   1.082       .  S
C76          C77   1.381       .  A
C76        C1711   1.436       .  S
C77          H79   1.082       .  S
Cu80         N83   2.068       .  S
Cu81         N91   2.076       .  S
Cu82         N84   2.076       .  S
Cu82         N90   2.077       .  S
N83          N84   1.322       .  A
N83          C87   1.343       .  A
N84          C85   1.347       .  A
C85          C86   1.381       .  A
C85          H88   1.082       .  S
C86          C87   1.378       .  A
C86        C1709   1.437       .  S
C87          H89   1.082       .  S
N90          N91   1.324       .  A
N90          C94   1.346       .  A
N91          C92   1.346       .  A
C92          C93   1.379       .  A
C92          H95   1.082       .  S
C93          C94   1.379       .  A
C93        C1717   1.437       .  S
C94          H96   1.082       .  S
N97          N98   1.323       .  A
N97         C101   1.348       .  A
N97        Cu105   2.077       .  S
N98          C99   1.344       .  A
N98        Cu104   2.070       .  S
C99         C100   1.378       .  A
C99         H102   1.082       .  S
C100        C101   1.381       .  A
C100       C1705   1.438       .  S
C101        H103   1.082       .  S
Cu104       N107   2.070       .  S
Cu105       N115   2.077       .  S
Cu106       N108   2.076       .  S
Cu106       N114   2.077       .  S
N107        N108   1.323       .  A
N107        C111   1.344       .  A
N108        C109   1.347       .  A
C109        C110   1.381       .  A
C109        H112   1.082       .  S
C110        C111   1.378       .  A
C110       C1703   1.438       .  S
C111        H113   1.082       .  S
N114        N115   1.324       .  A
N114        C118   1.346       .  A
N115        C116   1.346       .  A
C116        C117   1.379       .  A
C116        H119   1.082       .  S
C117        C118   1.379       .  A
C117       C1708   1.437       .  S
C118        H120   1.082       .  S
N121        N122   1.323       .  A
N121        C125   1.347       .  A
N121       Cu129   2.075       .  S
N122        C123   1.343       .  A
N122       Cu128   2.068       .  S
C123        C124   1.378       .  A
C123        H126   1.082       .  S
C124        C125   1.381       .  A
C124       C1701   1.436       .  S
C125        H127   1.082       .  S
Cu128       N131   2.068       .  S
Cu129       N139   2.076       .  S
Cu130       N132   2.076       .  S
Cu130       N138   2.077       .  S
N131        N132   1.323       .  A
N131        C135   1.343       .  A
N132        C133   1.348       .  A
C133        C134   1.381       .  A
C133        H136   1.082       .  S
C134        C135   1.378       .  A
C134       C1699   1.437       .  S
C135        H137   1.082       .  S
N138        N139   1.324       .  A
N138        C142   1.346       .  A
N139        C140   1.346       .  A
C140        C141   1.379       .  A
C140        H143   1.082       .  S
C141        C142   1.379       .  A
C141       C1707   1.437       .  S
C142        H144   1.082       .  S
N145        N146   1.322       .  A
N145        C149   1.348       .  A
N145       Cu153   2.077       .  S
N146        C147   1.344       .  A
N146       Cu152   2.067       .  S
C147        C148   1.378       .  A
C147        H150   1.082       .  S
C148        C149   1.382       .  A
C148       C1696   1.438       .  S
C149        H151   1.082       .  S
Cu152       N155   2.067       .  S
Cu153       N163   2.078       .  S
Cu154       N156   2.077       .  S
Cu154       N162   2.078       .  S
N155        N156   1.322       .  A
N155        C159   1.343       .  A
N156        C157   1.348       .  A
C157        C158   1.382       .  A
C157        H160   1.082       .  S
C158        C159   1.378       .  A
C158       C1694   1.437       .  S
C159        H161   1.082       .  S
N162        N163   1.325       .  A
N162        C166   1.346       .  A
N163        C164   1.346       .  A
C164        C165   1.379       .  A
C164        H167   1.082       .  S
C165        C166   1.379       .  A
C165       C1697   1.437       .  S
C166        H168   1.082       .  S
N169        N170   1.323       .  A
N169        C173   1.347       .  A
N169       Cu177   2.075       .  S
N170        C171   1.343       .  A
N170       Cu176   2.067       .  S
C171        C172   1.378       .  A
C171        H174   1.082       .  S
C172        C173   1.381       .  A
C172       C1692   1.436       .  S
C173        H175   1.082       .  S
Cu176       N179   2.067       .  S
Cu177       N187   2.076       .  S
Cu178       N180   2.076       .  S
Cu178       N186   2.077       .  S
N179        N180   1.323       .  A
N179        C183   1.343       .  A
N180        C181   1.347       .  A
C181        C182   1.381       .  A
C181        H184   1.082       .  S
C182        C183   1.378       .  A
C182       C1690   1.436       .  S
C183        H185   1.082       .  S
N186        N187   1.324       .  A
N186        C190   1.346       .  A
N187        C188   1.346       .  A
C188        C189   1.379       .  A
C188        H191   1.082       .  S
C189        C190   1.379       .  A
C189       C1698   1.437       .  S
C190        H192   1.082       .  S
N193        N194   1.322       .  A
N193        C197   1.348       .  A
N193       Cu201   2.076       .  S
N194        C195   1.343       .  A
N194       Cu200   2.067       .  S
C195        C196   1.378       .  A
C195        H198   1.082       .  S
C196        C197   1.382       .  A
C196       C1683   1.437       .  S
C197        H199   1.082       .  S
Cu200       N203   2.067       .  S
Cu201       N211   2.076       .  S
Cu202       N204   2.078       .  S
Cu202       N210   2.079       .  S
N203        N204   1.322       .  A
N203        C207   1.343       .  A
N204        C205   1.348       .  A
C205        C206   1.382       .  A
C205        H208   1.082       .  S
C206        C207   1.378       .  A
C206       C1685   1.438       .  S
C207        H209   1.082       .  S
N210        N211   1.325       .  A
N210        C214   1.346       .  A
N211        C212   1.345       .  A
C212        C213   1.378       .  A
C212        H215   1.082       .  S
C213        C214   1.379       .  A
C213       C1687   1.437       .  S
C214        H216   1.082       .  S
N217        N218   1.323       .  A
N217        C221   1.347       .  A
N217       Cu225   2.076       .  S
N218        C219   1.343       .  A
N218       Cu224   2.066       .  S
C219        C220   1.377       .  A
C219        H222   1.082       .  S
C220        C221   1.381       .  A
C220       C1681   1.436       .  S
C221        H223   1.082       .  S
Cu224       N227   2.066       .  S
Cu225       N235   2.076       .  S
Cu226       N228   2.074       .  S
Cu226       N234   2.075       .  S
N227        N228   1.322       .  A
N227        C231   1.343       .  A
N228        C229   1.347       .  A
C229        C230   1.381       .  A
C229        H232   1.082       .  S
C230        C231   1.378       .  A
C230       C1679   1.436       .  S
C231        H233   1.082       .  S
N234        N235   1.324       .  A
N234        C238   1.345       .  A
N235        C236   1.346       .  A
C236        C237   1.379       .  A
C236        H239   1.082       .  S
C237        C238   1.379       .  A
C237       C1688   1.437       .  S
C238        H240   1.082       .  S
N241        N242   1.323       .  A
N241        C245   1.347       .  A
N241       Cu249   2.075   1_455  S
N242        C243   1.344       .  A
N242       Cu248   2.071       .  S
C243        C244   1.378       .  A
C243        H246   1.082       .  S
C244        C245   1.381       .  A
C244       C1676   1.437       .  S
C245        H247   1.082   1_455  S
Cu248       N251   2.070       .  S
Cu249       N259   2.076       .  S
Cu250       N252   2.075   1_655  S
Cu250       N258   2.075       .  S
N251        N252   1.323       .  A
N251        C255   1.344       .  A
N252        C253   1.347       .  A
C253        C254   1.381       .  A
C253        H256   1.082   1_455  S
C254        C255   1.378       .  A
C254       C1674   1.437       .  S
C255        H257   1.082       .  S
N258        N259   1.324       .  A
N258        C262   1.346       .  A
N259        C260   1.346       .  A
C260        C261   1.379       .  A
C260        H263   1.082       .  S
C261        C262   1.379       .  A
C261       C1677   1.437       .  S
C262        H264   1.082       .  S
N265        N266   1.322       .  A
N265        C269   1.347       .  A
N265       Cu273   2.076       .  S
N266        C267   1.344       .  A
N266       Cu272   2.068       .  S
C267        C268   1.378       .  A
C267        H270   1.082       .  S
C268        C269   1.381       .  A
C268       C1671   1.437       .  S
C269        H271   1.082       .  S
Cu272       N275   2.068       .  S
Cu273       N283   2.076   1_455  S
Cu274       N276   2.075       .  S
Cu274       N282   2.076   1_455  S
N275        N276   1.323       .  A
N275        C279   1.343       .  A
N276        C277   1.347       .  A
C277        C278   1.381       .  A
C277        H280   1.082       .  S
C278        C279   1.378       .  A
C278       C1669   1.437       .  S
C279        H281   1.082       .  S
N282        N283   1.324       .  A
N282        C286   1.346       .  A
N283        C284   1.346       .  A
C284        C285   1.379       .  A
C284        H287   1.082       .  S
C285        C286   1.379       .  A
C285       C1678   1.437       .  S
C286        H288   1.082       .  S
N289        N290   1.323       .  A
N289        C293   1.347       .  A
N289       Cu297   2.075       .  S
N290        C291   1.343       .  A
N290       Cu296   2.068       .  S
C291        C292   1.378       .  A
C291        H294   1.082       .  S
C292        C293   1.381       .  A
C292       C1666   1.437       .  S
C293        H295   1.082       .  S
Cu296       N299   2.068       .  S
Cu297       N307   2.076       .  S
Cu298       N300   2.076       .  S
Cu298       N306   2.077       .  S
N299        N300   1.323       .  A
N299        C303   1.344       .  A
N300        C301   1.347       .  A
C301        C302   1.381       .  A
C301        H304   1.082       .  S
C302        C303   1.378       .  A
C302       C1664   1.437       .  S
C303        H305   1.082       .  S
N306        N307   1.324       .  A
N306        C310   1.346       .  A
N307        C308   1.346       .  A
C308        C309   1.379       .  A
C308        H311   1.082       .  S
C309        C310   1.379       .  A
C309       C1667   1.437       .  S
C310        H312   1.082       .  S
N313        N314   1.323       .  A
N313        C317   1.347       .  A
N313       Cu321   2.077       .  S
N314        C315   1.343       .  A
N314       Cu320   2.068       .  S
C315        C316   1.378       .  A
C315        H318   1.082       .  S
C316        C317   1.381       .  A
C316       C1661   1.437       .  S
C317        H319   1.082       .  S
Cu320       N323   2.068       .  S
Cu321       N331   2.077       .  S
Cu322       N324   2.075       .  S
Cu322       N330   2.076       .  S
N323        N324   1.322       .  A
N323        C327   1.343       .  A
N324        C325   1.347       .  A
C325        C326   1.381       .  A
C325        H328   1.082       .  S
C326        C327   1.378       .  A
C326       C1659   1.437       .  S
C327        H329   1.082       .  S
N330        N331   1.324       .  A
N330        C334   1.345       .  A
N331        C332   1.346       .  A
C332        C333   1.379       .  A
C332        H335   1.082       .  S
C333        C334   1.379       .  A
C333       C1668   1.437       .  S
C334        H336   1.082       .  S
O337       Cu345   2.017       .  S
O337        C347   1.277       .  A
O338       Cu345   2.017   1_545  S
O338        C348   1.277       .  A
O339       Cu345   2.015       .  S
O339        C349   1.277       .  A
O340       Cu345   2.014       .  S
O340        C350   1.277       .  A
O341       Cu346   2.003       .  S
O341        C350   1.276       .  A
O342       Cu346   2.003       .  S
O342        C349   1.276       .  A
O343       Cu346   2.003   1_545  S
O343        C348   1.276       .  A
O344       Cu346   2.003       .  S
O344        C347   1.276       .  A
Cu345      Cu346   2.380       .  S
C347       C1726   1.435       .  S
C348       C1663   1.435       .  S
C349       C1657   1.434       .  S
C350       C1682   1.434       .  S
N351        N352   1.323       .  A
N351        C355   1.347       .  A
N351       Cu359   2.075   1_455  S
N352        C353   1.344       .  A
N352       Cu358   2.071       .  S
C353        C354   1.378       .  A
C353        H356   1.082       .  S
C354        C355   1.381       .  A
C354       C1651   1.437       .  S
C355        H357   1.082   1_455  S
Cu358       N361   2.071       .  S
Cu359       N369   2.076       .  S
Cu360       N362   2.075   1_655  S
Cu360       N368   2.076       .  S
N361        N362   1.323       .  A
N361        C365   1.344       .  A
N362        C363   1.347       .  A
C363        C364   1.381       .  A
C363        H366   1.082   1_455  S
C364        C365   1.378       .  A
C364       C1653   1.437       .  S
C365        H367   1.082       .  S
N368        N369   1.324       .  A
N368        C372   1.346       .  A
N369        C370   1.345       .  A
C370        C371   1.379       .  A
C370        H373   1.082       .  S
C371        C372   1.379       .  A
C371       C1656   1.437       .  S
C372        H374   1.082       .  S
N375        N376   1.322       .  A
N375        C379   1.347       .  A
N375       Cu383   2.076       .  S
N376        C377   1.343       .  A
N376       Cu382   2.068       .  S
C377        C378   1.378       .  A
C377        H380   1.082       .  S
C378        C379   1.381       .  A
C378       C1649   1.437       .  S
C379        H381   1.082       .  S
Cu382       N385   2.068       .  S
Cu383       N393   2.076   1_455  S
Cu384       N386   2.075   1_655  S
Cu384       N392   2.076       .  S
N385        N386   1.323       .  A
N385        C389   1.343       .  A
N386        C387   1.347       .  A
C387        C388   1.381       .  A
C387        H390   1.082   1_455  S
C388        C389   1.378       .  A
C388       C1647   1.437       .  S
C389        H391   1.082       .  S
N392        N393   1.324       .  A
N392        C396   1.346       .  A
N393        C394   1.346       .  A
C394        C395   1.379       .  A
C394        H397   1.082       .  S
C395        C396   1.379       .  A
C395       C1655   1.437       .  S
C396        H398   1.082       .  S
N399        N400   1.323       .  A
N399        C403   1.348       .  A
N399       Cu407   2.077       .  S
N400        C401   1.343       .  A
N400       Cu406   2.068       .  S
C401        C402   1.378       .  A
C401        H404   1.082       .  S
C402        C403   1.382       .  A
C402       C1641   1.437       .  S
C403        H405   1.082       .  S
Cu406       N409   2.069       .  S
Cu407       N417   2.078       .  S
Cu408       N410   2.079       .  S
Cu408       N416   2.079       .  S
N409        N410   1.322       .  A
N409        C413   1.344       .  A
N410        C411   1.348       .  A
C411        C412   1.382       .  A
C411        H414   1.082       .  S
C412        C413   1.378       .  A
C412       C1643   1.439       .  S
C413        H415   1.082       .  S
N416        N417   1.325       .  A
N416        C420   1.346       .  A
N417        C418   1.346       .  A
C418        C419   1.379       .  A
C418        H421   1.082       .  S
C419        C420   1.379       .  A
C419       C1646   1.438       .  S
C420        H422   1.082       .  S
N423        N424   1.322       .  A
N423        C427   1.347       .  A
N423       Cu431   2.077       .  S
N424        C425   1.343       .  A
N424       Cu430   2.066       .  S
C425        C426   1.377       .  A
C425        H428   1.082       .  S
C426        C427   1.381       .  A
C426       C1639   1.436       .  S
C427        H429   1.082       .  S
Cu430       N433   2.066       .  S
Cu431       N441   2.078       .  S
Cu432       N434   2.076       .  S
Cu432       N440   2.077       .  S
N433        N434   1.323       .  A
N433        C437   1.343       .  A
N434        C435   1.347       .  A
C435        C436   1.381       .  A
C435        H438   1.082       .  S
C436        C437   1.377       .  A
C436       C1658   1.436       .  S
C437        H439   1.082       .  S
N440        N441   1.324       .  A
N440        C444   1.346       .  A
N441        C442   1.346       .  A
C442        C443   1.379       .  A
C442        H445   1.082       .  S
C443        C444   1.379       .  A
C443       C1645   1.438       .  S
C444        H446   1.082       .  S
O447       Cu455   2.016   1_655  S
O447        C457   1.277       .  A
O448       Cu455   2.016       .  S
O448        C458   1.277       .  A
O449       Cu455   2.019       .  S
O449        C459   1.278       .  A
O450       Cu455   2.019   1_545  S
O450        C460   1.278       .  A
O451       Cu456   2.002   1_545  S
O451        C460   1.275       .  A
O452       Cu456   2.002       .  S
O452        C459   1.275       .  A
O453       Cu456   2.005       .  S
O453        C458   1.276       .  A
O454       Cu456   2.005   1_655  S
O454        C457   1.276       .  A
Cu455      Cu456   2.380       .  S
C457       C1686   1.436       .  S
C458       C1642   1.435       .  S
C459       C1675   1.435       .  S
C460       C1652   1.435       .  S
N461        N462   1.322       .  A
N461        C465   1.347       .  A
N461       Cu469   2.076       .  S
N462        C463   1.343       .  A
N462       Cu468   2.068       .  S
C463        C464   1.378       .  A
C463        H466   1.082       .  S
C464        C465   1.381       .  A
C464       C1635   1.437       .  S
C465        H467   1.082       .  S
Cu468       N471   2.068       .  S
Cu469       N479   2.077       .  S
Cu470       N472   2.078       .  S
Cu470       N478   2.079       .  S
N471        N472   1.323       .  A
N471        C475   1.344       .  A
N472        C473   1.348       .  A
C473        C474   1.382       .  A
C473        H476   1.082       .  S
C474        C475   1.378       .  A
C474       C1633   1.438       .  S
C475        H477   1.082       .  S
N478        N479   1.324       .  A
N478        C482   1.346       .  A
N479        C480   1.346       .  A
C480        C481   1.379       .  A
C480        H483   1.082       .  S
C481        C482   1.380       .  A
C481       C1637   1.438       .  S
C482        H484   1.082       .  S
N485        N486   1.322       .  A
N485        C489   1.348       .  A
N485       Cu493   2.077       .  S
N486        C487   1.344       .  A
N486       Cu492   2.068       .  S
C487        C488   1.378       .  A
C487        H490   1.082       .  S
C488        C489   1.382       .  A
C488       C1629   1.437       .  S
C489        H491   1.082       .  S
Cu492       N495   2.068       .  S
Cu493       N503   2.078       .  S
Cu494       N496   2.078       .  S
Cu494       N502   2.078       .  S
N495        N496   1.323       .  A
N495        C499   1.343       .  A
N496        C497   1.348       .  A
C497        C498   1.382       .  A
C497        H500   1.082       .  S
C498        C499   1.378       .  A
C498       C1631   1.437       .  S
C499        H501   1.082       .  S
N502        N503   1.324       .  A
N502        C506   1.346       .  A
N503        C504   1.346       .  A
C504        C505   1.379       .  A
C504        H507   1.082       .  S
C505        C506   1.379       .  A
C505       C1638   1.438       .  S
C506        H508   1.082       .  S
O509       Cu517   2.005       .  S
O509        C519   1.276       .  A
O510       Cu517   2.004   1_655  S
O510        C520   1.276       .  A
O511       Cu517   2.003       .  S
O511        C521   1.276       .  A
O512       Cu517   2.003       .  S
O512        C522   1.276       .  A
O513       Cu518   2.017       .  S
O513        C522   1.277       .  A
O514       Cu518   2.017       .  S
O514        C521   1.277       .  A
O515       Cu518   2.018   1_655  S
O515        C520   1.277       .  A
O516       Cu518   2.018       .  S
O516        C519   1.277       .  A
Cu517      Cu518   2.380       .  S
C519       C1634   1.436       .  S
C520       C1706   1.436       .  S
C521       C1672   1.435       .  S
C522       C1650   1.435       .  S
O523       Cu531   2.017       .  S
O523        C533   1.277       .  A
O524       Cu531   2.017       .  S
O524        C534   1.277       .  A
O525       Cu531   2.016       .  S
O525        C535   1.277       .  A
O526       Cu531   2.017       .  S
O526        C536   1.277       .  A
O527       Cu532   2.004       .  S
O527        C536   1.276       .  A
O528       Cu532   2.003       .  S
O528        C535   1.276       .  A
O529       Cu532   2.003       .  S
O529        C534   1.276       .  A
O530       Cu532   2.004       .  S
O530        C533   1.276       .  A
Cu531      Cu532   2.380       .  S
C533       C1662   1.435       .  S
C534       C1722   1.435       .  S
C535       C1702   1.434       .  S
C536       C1632   1.436       .  S
N537        N538   1.323       .  A
N537        C541   1.347       .  A
N537       Cu545   2.074       .  S
N538        C539   1.343       .  A
N538       Cu544   2.069       .  S
C539        C540   1.378       .  A
C539        H542   1.082       .  S
C540        C541   1.381       .  A
C540       C1625   1.436       .  S
C541        H543   1.082       .  S
Cu544       N547   2.069       .  S
Cu545       N555   2.074       .  S
Cu546       N548   2.075       .  S
Cu546       N554   2.076       .  S
N547        N548   1.323       .  A
N547        C551   1.344       .  A
N548        C549   1.347       .  A
C549        C550   1.381       .  A
C549        H552   1.082       .  S
C550        C551   1.378       .  A
C550       C1624   1.436       .  S
C551        H553   1.082       .  S
N554        N555   1.324       .  A
N554        C558   1.345       .  A
N555        C556   1.345       .  A
C556        C557   1.379       .  A
C556        H559   1.082       .  S
C557        C558   1.379       .  A
C557       C1627   1.436       .  S
C558        H560   1.082       .  S
N561        N562   1.323       .  A
N561        C565   1.347       .  A
N561       Cu569   2.075       .  S
N562        C563   1.344       .  A
N562       Cu568   2.068       .  S
C563        C564   1.378       .  A
C563        H566   1.082       .  S
C564        C565   1.381       .  A
C564       C1619   1.437       .  S
C565        H567   1.082       .  S
Cu568       N571   2.068       .  S
Cu569       N579   2.075       .  S
Cu570       N572   2.074       .  S
Cu570       N578   2.075       .  S
N571        N572   1.323       .  A
N571        C575   1.343       .  A
N572        C573   1.347       .  A
C573        C574   1.381       .  A
C573        H576   1.082       .  S
C574        C575   1.378       .  A
C574       C1621   1.436       .  S
C575        H577   1.082       .  S
N578        N579   1.324       .  A
N578        C582   1.345       .  A
N579        C580   1.345       .  A
C580        C581   1.379       .  A
C580        H583   1.082       .  S
C581        C582   1.379       .  A
C581       C1628   1.436       .  S
C582        H584   1.082       .  S
O585       Cu593   2.015       .  S
O585        C595   1.277       .  A
O586       Cu593   2.016       .  S
O586        C596   1.277       .  A
O587       Cu593   2.017       .  S
O587        C597   1.277       .  A
O588       Cu593   2.017   1_556  S
O588        C598   1.277       .  A
O589       Cu594   2.002   1_556  S
O589        C598   1.276       .  A
O590       Cu594   2.002       .  S
O590        C597   1.276       .  A
O591       Cu594   2.002       .  S
O591        C596   1.276       .  A
O592       Cu594   2.002       .  S
O592        C595   1.276       .  A
Cu593      Cu594   2.380       .  S
C595       C1691   1.434       .  S
C596       C1617   1.434       .  S
C597       C1623   1.435       .  S
C598       C1720   1.435       .  S
N599        N600   1.323       .  A
N599        C603   1.348       .  A
N599       Cu607   2.076       .  S
N600        C601   1.343       .  A
N600       Cu606   2.069       .  S
C601        C602   1.378       .  A
C601        H604   1.082       .  S
C602        C603   1.381       .  A
C602       C1612   1.437       .  S
C603        H605   1.082       .  S
Cu606       N609   2.069       .  S
Cu607       N617   2.076       .  S
Cu608       N610   2.079       .  S
Cu608       N616   2.079       .  S
N609        N610   1.322       .  A
N609        C613   1.344       .  A
N610        C611   1.348       .  A
C611        C612   1.382       .  A
C611        H614   1.082       .  S
C612        C613   1.378       .  A
C612       C1613   1.439       .  S
C613        H615   1.082       .  S
N616        N617   1.325       .  A
N616        C620   1.346       .  A
N617        C618   1.346       .  A
C618        C619   1.379       .  A
C618        H621   1.082       .  S
C619        C620   1.379       .  A
C619       C1615   1.437       .  S
C620        H622   1.082       .  S
N623        N624   1.323       .  A
N623        C627   1.347       .  A
N623       Cu631   2.076       .  S
N624        C625   1.343       .  A
N624       Cu630   2.066       .  S
C625        C626   1.378       .  A
C625        H628   1.082       .  S
C626        C627   1.381       .  A
C626       C1609   1.436       .  S
C627        H629   1.082       .  S
Cu630       N633   2.067       .  S
Cu631       N641   2.077       .  S
Cu632       N634   2.075       .  S
Cu632       N640   2.076       .  S
N633        N634   1.323       .  A
N633        C637   1.343       .  A
N634        C635   1.347       .  A
C635        C636   1.381       .  A
C635        H638   1.082       .  S
C636        C637   1.377       .  A
C636       C1618   1.436       .  S
C637        H639   1.082       .  S
N640        N641   1.324       .  A
N640        C644   1.346       .  A
N641        C642   1.346       .  A
C642        C643   1.379       .  A
C642        H645   1.082       .  S
C643        C644   1.379       .  A
C643       C1616   1.437       .  S
C644        H646   1.082       .  S
N647        N648   1.323       .  A
N647        C651   1.347       .  A
N647       Cu655   2.074   1_455  S
N648        C649   1.344       .  A
N648       Cu654   2.070       .  S
C649        C650   1.378       .  A
C649        H652   1.082       .  S
C650        C651   1.381       .  A
C650       C1603   1.437       .  S
C651        H653   1.082   1_455  S
Cu654       N657   2.070       .  S
Cu655       N665   2.075       .  S
Cu656       N658   2.074   1_655  S
Cu656       N664   2.075       .  S
N657        N658   1.323       .  A
N657        C661   1.344       .  A
N658        C659   1.347       .  A
C659        C660   1.381       .  A
C659        H662   1.082   1_455  S
C660        C661   1.378       .  A
C660       C1605   1.437       .  S
C661        H663   1.082       .  S
N664        N665   1.324       .  A
N664        C668   1.345       .  A
N665        C666   1.345       .  A
C666        C667   1.379       .  A
C666        H669   1.082       .  S
C667        C668   1.379       .  A
C667       C1607   1.436       .  S
C668        H670   1.082       .  S
N671        N672   1.322       .  A
N671        C675   1.347       .  A
N671       Cu679   2.075   1_455  S
N672        C673   1.343       .  A
N672       Cu678   2.067       .  S
C673        C674   1.378       .  A
C673        H676   1.082       .  S
C674        C675   1.381       .  A
C674       C1600   1.436       .  S
C675        H677   1.082   1_455  S
Cu678       N681   2.067       .  S
Cu679       N689   2.075       .  S
Cu680       N682   2.075       .  S
Cu680       N688   2.075       .  S
N681        N682   1.322   1_455  A
N681        C685   1.343       .  A
N682        C683   1.347       .  A
C683        C684   1.381   1_655  A
C683        H686   1.082       .  S
C684        C685   1.378       .  A
C684       C1601   1.436       .  S
C685        H687   1.082       .  S
N688        N689   1.324       .  A
N688        C692   1.345       .  A
N689        C690   1.345       .  A
C690        C691   1.379       .  A
C690        H693   1.082       .  S
C691        C692   1.379       .  A
C691       C1608   1.436       .  S
C692        H694   1.082       .  S
O695       Cu703   2.004   1_655  S
O695        C705   1.276       .  A
O696       Cu703   2.004       .  S
O696        C706   1.276       .  A
O697       Cu703   2.001   1_556  S
O697        C707   1.275       .  A
O698       Cu703   2.001       .  S
O698        C708   1.275       .  A
O699       Cu704   2.018       .  S
O699        C708   1.277       .  A
O700       Cu704   2.018   1_556  S
O700        C707   1.277       .  A
O701       Cu704   2.016       .  S
O701        C706   1.277       .  A
O702       Cu704   2.016   1_655  S
O702        C705   1.277       .  A
Cu703      Cu704   2.380       .  S
C705       C1693   1.436       .  S
C706       C1611   1.435       .  S
C707       C1673   1.435       .  S
C708       C1604   1.435       .  S
N709        N710   1.322       .  A
N709        C713   1.347       .  A
N709       Cu717   2.075       .  S
N710        C711   1.343       .  A
N710       Cu716   2.068       .  S
C711        C712   1.378       .  A
C711        H714   1.082       .  S
C712        C713   1.381       .  A
C712       C1595   1.437       .  S
C713        H715   1.082       .  S
Cu716       N719   2.068       .  S
Cu717       N727   2.075       .  S
Cu718       N720   2.078       .  S
Cu718       N726   2.078       .  S
N719        N720   1.323       .  A
N719        C723   1.344       .  A
N720        C721   1.348       .  A
C721        C722   1.382       .  A
C721        H724   1.082       .  S
C722        C723   1.378       .  A
C722       C1593   1.438       .  S
C723        H725   1.082       .  S
N726        N727   1.324       .  A
N726        C730   1.346       .  A
N727        C728   1.345       .  A
C728        C729   1.379       .  A
C728        H731   1.082       .  S
C729        C730   1.379       .  A
C729       C1597   1.437       .  S
C730        H732   1.082       .  S
N733        N734   1.322       .  A
N733        C737   1.348       .  A
N733       Cu741   2.077       .  S
N734        C735   1.343       .  A
N734       Cu740   2.067       .  S
C735        C736   1.378       .  A
C735        H738   1.082       .  S
C736        C737   1.382       .  A
C736       C1591   1.437       .  S
C737        H739   1.082       .  S
Cu740       N743   2.067       .  S
Cu741       N751   2.077       .  S
Cu742       N744   2.077       .  S
Cu742       N750   2.077       .  S
N743        N744   1.323       .  A
N743        C747   1.343       .  A
N744        C745   1.348       .  A
C745        C746   1.381       .  A
C745        H748   1.082       .  S
C746        C747   1.377       .  A
C746       C1590   1.437       .  S
C747        H749   1.082       .  S
N750        N751   1.324       .  A
N750        C754   1.346       .  A
N751        C752   1.346       .  A
C752        C753   1.379       .  A
C752        H755   1.082       .  S
C753        C754   1.379       .  A
C753       C1598   1.437       .  S
C754        H756   1.082       .  S
O757       Cu765   2.016       .  S
O757        C767   1.277       .  A
O758       Cu765   2.016       .  S
O758        C768   1.277       .  A
O759       Cu765   2.019   1_655  S
O759        C769   1.277       .  A
O760       Cu765   2.018       .  S
O760        C770   1.277       .  A
O761       Cu766   2.004       .  S
O761        C770   1.276       .  A
O762       Cu766   2.004   1_655  S
O762        C769   1.276       .  A
O763       Cu766   2.002       .  S
O763        C768   1.276       .  A
O764       Cu766   2.003       .  S
O764        C767   1.276       .  A
Cu765      Cu766   2.380       .  S
C767       C1670   1.435       .  S
C768       C1599   1.435       .  S
C769       C1716   1.436       .  S
C770       C1594   1.436       .  S
O771       Cu779   2.003       .  S
O771        C781   1.276       .  A
O772       Cu779   2.004       .  S
O772        C782   1.276       .  A
O773       Cu779   2.002       .  S
O773        C783   1.276       .  A
O774       Cu779   2.002       .  S
O774        C784   1.276       .  A
O775       Cu780   2.017       .  S
O775        C784   1.277       .  A
O776       Cu780   2.017       .  S
O776        C783   1.277       .  A
O777       Cu780   2.016       .  S
O777        C782   1.277       .  A
O778       Cu780   2.015       .  S
O778        C781   1.277       .  A
Cu779      Cu780   2.380       .  S
C781       C1712   1.434       .  S
C782       C1589   1.435       .  S
C783       C1723   1.435       .  S
C784       C1620   1.435       .  S
N785        N786   1.323       .  A
N785        C789   1.347       .  A
N785       Cu793   2.075       .  S
N786        C787   1.344       .  A
N786       Cu792   2.069       .  S
C787        C788   1.378       .  A
C787        H790   1.082       .  S
C788        C789   1.381       .  A
C788       C1585   1.437       .  S
C789        H791   1.082       .  S
Cu792       N795   2.069       .  S
Cu793       N803   2.076       .  S
Cu794       N796   2.074       .  S
Cu794       N802   2.075       .  S
N795        N796   1.323       .  A
N795        C799   1.343       .  A
N796        C797   1.347       .  A
C797        C798   1.381       .  A
C797        H800   1.082       .  S
C798        C799   1.378       .  A
C798       C1583   1.436       .  S
C799        H801   1.082       .  S
N802        N803   1.324       .  A
N802        C806   1.345       .  A
N803        C804   1.345       .  A
C804        C805   1.379       .  A
C804        H807   1.082       .  S
C805        C806   1.379       .  A
C805       C1588   1.436       .  S
C806        H808   1.082       .  S
N809        N810   1.323       .  A
N809        C813   1.347       .  A
N809       Cu817   2.074       .  S
N810        C811   1.343       .  A
N810       Cu816   2.069       .  S
C811        C812   1.378       .  A
C811        H814   1.082       .  S
C812        C813   1.381       .  A
C812       C1581   1.436       .  S
C813        H815   1.082       .  S
Cu816       N819   2.069       .  S
Cu817       N827   2.074       .  S
Cu818       N820   2.075       .  S
Cu818       N826   2.076       .  S
N819        N820   1.323       .  A
N819        C823   1.344       .  A
N820        C821   1.347       .  A
C821        C822   1.381       .  A
C821        H824   1.082       .  S
C822        C823   1.378       .  A
C822       C1580   1.437       .  S
C823        H825   1.082       .  S
N826        N827   1.324       .  A
N826        C830   1.346       .  A
N827        C828   1.345       .  A
C828        C829   1.379       .  A
C828        H831   1.082       .  S
C829        C830   1.379       .  A
C829       C1587   1.436       .  S
C830        H832   1.082       .  S
O833       Cu841   2.016       .  S
O833        C843   1.277       .  A
O834       Cu841   2.016       .  S
O834        C844   1.277       .  A
O835       Cu841   2.017       .  S
O835        C845   1.277       .  A
O836       Cu841   2.017   1_545  S
O836        C846   1.277       .  A
O837       Cu842   2.001   1_545  S
O837        C846   1.275       .  A
O838       Cu842   2.001       .  S
O838        C845   1.275       .  A
O839       Cu842   2.001       .  S
O839        C844   1.275       .  A
O840       Cu842   2.001       .  S
O840        C843   1.275       .  A
Cu841      Cu842   2.380       .  S
C843       C1577   1.434       .  S
C844       C1575   1.434       .  S
C845       C1622   1.434       .  S
C846       C1584   1.434       .  S
O847       Cu855   2.017       .  S
O847        C857   1.277       .  A
O848       Cu855   2.017   1_556  S
O848        C858   1.277       .  A
O849       Cu855   2.015       .  S
O849        C859   1.277       .  A
O850       Cu855   2.015       .  S
O850        C860   1.277       .  A
O851       Cu856   2.002       .  S
O851        C860   1.276       .  A
O852       Cu856   2.002       .  S
O852        C859   1.276       .  A
O853       Cu856   2.002   1_556  S
O853        C858   1.276       .  A
O854       Cu856   2.002       .  S
O854        C857   1.276       .  A
Cu855      Cu856   2.380       .  S
C857       C1579   1.435       .  S
C858       C1660   1.435       .  S
C859       C1572   1.434       .  S
C860       C1573   1.434       .  S
N861        N862   1.322       .  A
N861        C865   1.347       .  A
N861       Cu869   2.075       .  S
N862        C863   1.343       .  A
N862       Cu868   2.068       .  S
C863        C864   1.378       .  A
C863        H866   1.082       .  S
C864        C865   1.381       .  A
C864       C1567   1.437       .  S
C865        H867   1.082       .  S
Cu868       N871   2.068       .  S
Cu869       N879   2.075       .  S
Cu870       N872   2.078       .  S
Cu870       N878   2.079       .  S
N871        N872   1.323       .  A
N871        C875   1.344       .  A
N872        C873   1.348       .  A
C873        C874   1.382       .  A
C873        H876   1.082       .  S
C874        C875   1.378       .  A
C874       C1565   1.438       .  S
C875        H877   1.082       .  S
N878        N879   1.324       .  A
N878        C882   1.346       .  A
N879        C880   1.345       .  A
C880        C881   1.379       .  A
C880        H883   1.082       .  S
C881        C882   1.379       .  A
C881       C1569   1.437       .  S
C882        H884   1.082       .  S
N885        N886   1.322       .  A
N885        C889   1.348       .  A
N885       Cu893   2.077       .  S
N886        C887   1.343       .  A
N886       Cu892   2.067       .  S
C887        C888   1.378       .  A
C887        H890   1.082       .  S
C888        C889   1.382       .  A
C888       C1561   1.437       .  S
C889        H891   1.082       .  S
Cu892       N895   2.067       .  S
Cu893       N903   2.077       .  S
Cu894       N896   2.077       .  S
Cu894       N902   2.078       .  S
N895        N896   1.323       .  A
N895        C899   1.343       .  A
N896        C897   1.348       .  A
C897        C898   1.382       .  A
C897        H900   1.082       .  S
C898        C899   1.377       .  A
C898       C1563   1.437       .  S
C899        H901   1.082       .  S
N902        N903   1.324       .  A
N902        C906   1.346       .  A
N903        C904   1.346       .  A
C904        C905   1.379       .  A
C904        H907   1.082       .  S
C905        C906   1.379       .  A
C905       C1570   1.437       .  S
C906        H908   1.082       .  S
O909       Cu917   2.018       .  S
O909        C919   1.277       .  A
O910       Cu917   2.019   1_655  S
O910        C920   1.277       .  A
O911       Cu917   2.016       .  S
O911        C921   1.277       .  A
O912       Cu917   2.016       .  S
O912        C922   1.277       .  A
O913       Cu918   2.003       .  S
O913        C922   1.276       .  A
O914       Cu918   2.003       .  S
O914        C921   1.276       .  A
O915       Cu918   2.004   1_655  S
O915        C920   1.276       .  A
O916       Cu918   2.004       .  S
O916        C919   1.276       .  A
Cu917      Cu918   2.380       .  S
C919       C1566   1.436       .  S
C920       C1557   1.436       .  S
C921       C1560   1.435       .  S
C922       C1648   1.435       .  S
O923       Cu931   2.015       .  S
O923        C933   1.277       .  A
O924       Cu931   2.015       .  S
O924        C934   1.277       .  A
O925       Cu931   2.016       .  S
O925        C935   1.277       .  A
O926       Cu931   2.016   1_545  S
O926        C936   1.277       .  A
O927       Cu932   2.005   1_545  S
O927        C936   1.276       .  A
O928       Cu932   2.004       .  S
O928        C935   1.276       .  A
O929       Cu932   2.003       .  S
O929        C934   1.276       .  A
O930       Cu932   2.003       .  S
O930        C933   1.276       .  A
Cu931      Cu932   2.380       .  S
C933       C1640   1.435       .  S
C934       C1555   1.434       .  S
C935       C1592   1.435       .  S
C936       C1562   1.435       .  S
N937        N938   1.323       .  A
N937        C941   1.348       .  A
N937       Cu945   2.076       .  S
N938        C939   1.343       .  A
N938       Cu944   2.069       .  S
C939        C940   1.378       .  A
C939        H942   1.082       .  S
C940        C941   1.381       .  A
C940       C1552   1.437       .  S
C941        H943   1.082       .  S
Cu944       N947   2.069       .  S
Cu945       N955   2.076       .  S
Cu946       N948   2.079       .  S
Cu946       N954   2.079       .  S
N947        N948   1.322       .  A
N947        C951   1.344       .  A
N948        C949   1.348       .  A
C949        C950   1.382       .  A
C949        H952   1.082       .  S
C950        C951   1.378       .  A
C950       C1549   1.439       .  S
C951        H953   1.082       .  S
N954        N955   1.325       .  A
N954        C958   1.346       .  A
N955        C956   1.346       .  A
C956        C957   1.379       .  A
C956        H959   1.082       .  S
C957        C958   1.379       .  A
C957       C1553   1.437       .  S
C958        H960   1.082       .  S
N961        N962   1.323       .  A
N961        C965   1.347       .  A
N961       Cu969   2.077       .  S
N962        C963   1.343       .  A
N962       Cu968   2.066       .  S
C963        C964   1.377       .  A
C963        H966   1.082       .  S
C964        C965   1.381       .  A
C964       C1547   1.436       .  S
C965        H967   1.082       .  S
Cu968       N971   2.066       .  S
Cu969       N979   2.077       .  S
Cu970       N972   2.075       .  S
Cu970       N978   2.076       .  S
N971        N972   1.323       .  A
N971        C975   1.343       .  A
N972        C973   1.347       .  A
C973        C974   1.381       .  A
C973        H976   1.082       .  S
C974        C975   1.377       .  A
C974       C1574   1.436       .  S
C975        H977   1.082       .  S
N978        N979   1.324       .  A
N978        C982   1.345       .  A
N979        C980   1.346       .  A
C980        C981   1.379       .  A
C980        H983   1.082       .  S
C981        C982   1.379       .  A
C981       C1554   1.437       .  S
C982        H984   1.082       .  S
N985        N986   1.323       .  A
N985        C989   1.347       .  A
N985       Cu993   2.075       .  S
N986        C987   1.343       .  A
N986       Cu992   2.069       .  S
C987        C988   1.378       .  A
C987        H990   1.082       .  S
C988        C989   1.381       .  A
C988       C1543   1.437       .  S
C989        H991   1.082       .  S
Cu992       N995   2.069       .  S
Cu993      N1003   2.075       .  S
Cu994       N996   2.078       .  S
Cu994      N1002   2.079       .  S
N995        N996   1.322       .  A
N995        C999   1.344       .  A
N996        C997   1.348       .  A
C997        C998   1.382       .  A
C997       H1000   1.082       .  S
C998        C999   1.378       .  A
C998       C1541   1.439       .  S
C999       H1001   1.082       .  S
N1002      N1003   1.324       .  A
N1002      C1006   1.346       .  A
N1003      C1004   1.345       .  A
C1004      C1005   1.378       .  A
C1004      H1007   1.082       .  S
C1005      C1006   1.379       .  A
C1005      C1545   1.437       .  S
C1006      H1008   1.082       .  S
N1009      N1010   1.323       .  A
N1009      C1013   1.347       .  A
N1009     Cu1017   2.076       .  S
N1010      C1011   1.343       .  A
N1010     Cu1016   2.067       .  S
C1011      C1012   1.378       .  A
C1011      H1014   1.082       .  S
C1012      C1013   1.381       .  A
C1012      C1556   1.436       .  S
C1013      H1015   1.082       .  S
Cu1016     N1019   2.067       .  S
Cu1017     N1027   2.077       .  S
Cu1018     N1020   2.074       .  S
Cu1018     N1026   2.075       .  S
N1019      N1020   1.323       .  A
N1019      C1023   1.343       .  A
N1020      C1021   1.347       .  A
C1021      C1022   1.381       .  A
C1021      H1024   1.082       .  S
C1022      C1023   1.378       .  A
C1022      C1578   1.436       .  S
C1023      H1025   1.082       .  S
N1026      N1027   1.324       .  A
N1026      C1030   1.345       .  A
N1027      C1028   1.346       .  A
C1028      C1029   1.379       .  A
C1028      H1031   1.082       .  S
C1029      C1030   1.379       .  A
C1029      C1546   1.437       .  S
C1030      H1032   1.082       .  S
N1033      N1034   1.323       .  A
N1033      C1037   1.347       .  A
N1033     Cu1041   2.075   1_455  S
N1034      C1035   1.344       .  A
N1034     Cu1040   2.070       .  S
C1035      C1036   1.378       .  A
C1035      H1038   1.082       .  S
C1036      C1037   1.381       .  A
C1036      C1536   1.437       .  S
C1037      H1039   1.082   1_455  S
Cu1040     N1043   2.070       .  S
Cu1041     N1051   2.075       .  S
Cu1042     N1044   2.074   1_655  S
Cu1042     N1050   2.075       .  S
N1043      N1044   1.323       .  A
N1043      C1047   1.344       .  A
N1044      C1045   1.347       .  A
C1045      C1046   1.381       .  A
C1045      H1048   1.082   1_455  S
C1046      C1047   1.378       .  A
C1046      C1538   1.437       .  S
C1047      H1049   1.082       .  S
N1050      N1051   1.324       .  A
N1050      C1054   1.345       .  A
N1051      C1052   1.345       .  A
C1052      C1053   1.379       .  A
C1052      H1055   1.082       .  S
C1053      C1054   1.379       .  A
C1053      C1539   1.436       .  S
C1054      H1056   1.082       .  S
N1057      N1058   1.322       .  A
N1057      C1061   1.347       .  A
N1057     Cu1065   2.075   1_455  S
N1058      C1059   1.343       .  A
N1058     Cu1064   2.067       .  S
C1059      C1060   1.378       .  A
C1059      H1062   1.082       .  S
C1060      C1061   1.381       .  A
C1060      C1559   1.436       .  S
C1061      H1063   1.082   1_455  S
Cu1064     N1067   2.067       .  S
Cu1065     N1075   2.075       .  S
Cu1066     N1068   2.075       .  S
Cu1066     N1074   2.075       .  S
N1067      N1068   1.322   1_455  A
N1067      C1071   1.343       .  A
N1068      C1069   1.347       .  A
C1069      C1070   1.381   1_655  A
C1069      H1072   1.082       .  S
C1070      C1071   1.378       .  A
C1070      C1533   1.436       .  S
C1071      H1073   1.082       .  S
N1074      N1075   1.324       .  A
N1074      C1078   1.345       .  A
N1075      C1076   1.345       .  A
C1076      C1077   1.379       .  A
C1076      H1079   1.082       .  S
C1077      C1078   1.379       .  A
C1077      C1540   1.436       .  S
C1078      H1080   1.082       .  S
O1081     Cu1089   2.001       .  S
O1081      C1091   1.275       .  A
O1082     Cu1089   2.001   1_545  S
O1082      C1092   1.275       .  A
O1083     Cu1089   2.003       .  S
O1083      C1093   1.276       .  A
O1084     Cu1089   2.004   1_655  S
O1084      C1094   1.276       .  A
O1085     Cu1090   2.016   1_655  S
O1085      C1094   1.277       .  A
O1086     Cu1090   2.016       .  S
O1086      C1093   1.277       .  A
O1087     Cu1090   2.018   1_545  S
O1087      C1092   1.277       .  A
O1088     Cu1090   2.018       .  S
O1088      C1091   1.277       .  A
Cu1089    Cu1090   2.380       .  S
C1091      C1606   1.435       .  S
C1092      C1537   1.435       .  S
C1093      C1544   1.435       .  S
C1094      C1531   1.435       .  S
O1095     Cu1103   2.019       .  S
O1095      C1105   1.278       .  A
O1096     Cu1103   2.019   1_545  S
O1096      C1106   1.278       .  A
O1097     Cu1103   2.019       .  S
O1097      C1107   1.278       .  A
O1098     Cu1103   2.020   1_556  S
O1098      C1108   1.278       .  A
O1099     Cu1104   2.005   1_556  S
O1099      C1108   1.276       .  A
O1100     Cu1104   2.005       .  S
O1100      C1107   1.276       .  A
O1101     Cu1104   2.005   1_545  S
O1101      C1106   1.276       .  A
O1102     Cu1104   2.005       .  S
O1102      C1105   1.276       .  A
Cu1103    Cu1104   2.379       .  S
C1105      C1614   1.437       .  S
C1106      C1550   1.437       .  S
C1107      C1542   1.437       .  S
C1108      C1644   1.437       .  S
O1109     Cu1117   2.005   1_655  S
O1109      C1119   1.276       .  A
O1110     Cu1117   2.004       .  S
O1110      C1120   1.276       .  A
O1111     Cu1117   2.002       .  S
O1111      C1121   1.275       .  A
O1112     Cu1117   2.002   1_556  S
O1112      C1122   1.275       .  A
O1113     Cu1118   2.018   1_556  S
O1113      C1122   1.278       .  A
O1114     Cu1118   2.018       .  S
O1114      C1121   1.278       .  A
O1115     Cu1118   2.016       .  S
O1115      C1120   1.277       .  A
O1116     Cu1118   2.016   1_655  S
O1116      C1119   1.277       .  A
Cu1117    Cu1118   2.380       .  S
C1119      C1529   1.436       .  S
C1120      C1551   1.435       .  S
C1121      C1535   1.435       .  S
C1122      C1654   1.435       .  S
N1123      N1124   1.322       .  A
N1123      C1127   1.347       .  A
N1123     Cu1131   2.073       .  S
N1124      C1125   1.344       .  A
N1124     Cu1130   2.069       .  S
C1125      C1126   1.378       .  A
C1125      H1128   1.082       .  S
C1126      C1127   1.381       .  A
C1126      C1525   1.436       .  S
C1127      H1129   1.082       .  S
Cu1130     N1133   2.069       .  S
Cu1131     N1141   2.074       .  S
Cu1132     N1134   2.076       .  S
Cu1132     N1140   2.077       .  S
N1133      N1134   1.323       .  A
N1133      C1137   1.344       .  A
N1134      C1135   1.347       .  A
C1135      C1136   1.381       .  A
C1135      H1138   1.082       .  S
C1136      C1137   1.378       .  A
C1136      C1523   1.437       .  S
C1137      H1139   1.082       .  S
N1140      N1141   1.324       .  A
N1140      C1144   1.346       .  A
N1141      C1142   1.345       .  A
C1142      C1143   1.379       .  A
C1142      H1145   1.082       .  S
C1143      C1144   1.379       .  A
C1143      C1527   1.436       .  S
C1144      H1146   1.082       .  S
N1147      N1148   1.322       .  A
N1147      C1151   1.348       .  A
N1147     Cu1155   2.076       .  S
N1148      C1149   1.343       .  A
N1148     Cu1154   2.067       .  S
C1149      C1150   1.378       .  A
C1149      H1152   1.082       .  S
C1150      C1151   1.382       .  A
C1150      C1519   1.437       .  S
C1151      H1153   1.082       .  S
Cu1154     N1157   2.067       .  S
Cu1155     N1165   2.077       .  S
Cu1156     N1158   2.076       .  S
Cu1156     N1164   2.076       .  S
N1157      N1158   1.323       .  A
N1157      C1161   1.343       .  A
N1158      C1159   1.347       .  A
C1159      C1160   1.381       .  A
C1159      H1162   1.082       .  S
C1160      C1161   1.377       .  A
C1160      C1521   1.436       .  S
C1161      H1163   1.082       .  S
N1164      N1165   1.324       .  A
N1164      C1168   1.346       .  A
N1165      C1166   1.345       .  A
C1166      C1167   1.379       .  A
C1166      H1169   1.082       .  S
C1167      C1168   1.379       .  A
C1167      C1528   1.437       .  S
C1168      H1170   1.082       .  S
O1171     Cu1179   2.015       .  S
O1171      C1181   1.277   1_455  A
O1172     Cu1179   2.015       .  S
O1172      C1182   1.277       .  A
O1173     Cu1179   2.019   1_655  S
O1173      C1183   1.277       .  A
O1174     Cu1179   2.017       .  S
O1174      C1184   1.277       .  A
O1175     Cu1180   2.003   1_455  S
O1175      C1184   1.276       .  A
O1176     Cu1180   2.003       .  S
O1176      C1183   1.276       .  A
O1177     Cu1180   2.002       .  S
O1177      C1182   1.276   1_655  A
O1178     Cu1180   2.002       .  S
O1178      C1181   1.276       .  A
Cu1179    Cu1180   2.380   1_455  S
C1181      C1602   1.434       .  S
C1182      C1534   1.434       .  S
C1183      C1518   1.436       .  S
C1184      C1524   1.435       .  S
O1185     Cu1193   2.016   1_556  S
O1185      C1195   1.277       .  A
O1186     Cu1193   2.016       .  S
O1186      C1196   1.277       .  A
O1187     Cu1193   2.015       .  S
O1187      C1197   1.277       .  A
O1188     Cu1193   2.015       .  S
O1188      C1198   1.277       .  A
O1189     Cu1194   2.003       .  S
O1189      C1198   1.276       .  A
O1190     Cu1194   2.003       .  S
O1190      C1197   1.276       .  A
O1191     Cu1194   2.004       .  S
O1191      C1196   1.276       .  A
O1192     Cu1194   2.005   1_556  S
O1192      C1195   1.276       .  A
Cu1193    Cu1194   2.380       .  S
C1195      C1630   1.435       .  S
C1196      C1520   1.435       .  S
C1197      C1610   1.434       .  S
C1198      C1548   1.434       .  S
O1199     Cu1207   2.017       .  S
O1199      C1209   1.277       .  A
O1200     Cu1207   2.017       .  S
O1200      C1210   1.277       .  A
O1201     Cu1207   2.017       .  S
O1201      C1211   1.277       .  A
O1202     Cu1207   2.017       .  S
O1202      C1212   1.277       .  A
O1203     Cu1208   2.002       .  S
O1203      C1212   1.276       .  A
O1204     Cu1208   2.002       .  S
O1204      C1211   1.276       .  A
O1205     Cu1208   2.002       .  S
O1205      C1210   1.276       .  A
O1206     Cu1208   2.002       .  S
O1206      C1209   1.276       .  A
Cu1207    Cu1208   2.380       .  S
C1209      C1526   1.434       .  S
C1210      C1636   1.435       .  S
C1211      C1568   1.435       .  S
C1212      C1596   1.435       .  S
O1213     Cu1221   2.002       .  S
O1213      C1223   1.276       .  A
O1214     Cu1221   2.002       .  S
O1214      C1224   1.276       .  A
O1215     Cu1221   2.004       .  S
O1215      C1225   1.276       .  A
O1216     Cu1221   2.003       .  S
O1216      C1226   1.276       .  A
O1217     Cu1222   2.015       .  S
O1217      C1226   1.277       .  A
O1218     Cu1222   2.016       .  S
O1218      C1225   1.277       .  A
O1219     Cu1222   2.017       .  S
O1219      C1224   1.277       .  A
O1220     Cu1222   2.017       .  S
O1220      C1223   1.277       .  A
Cu1221    Cu1222   2.380       .  S
C1223      C1586   1.435       .  S
C1224      C1665   1.435       .  S
C1225      C1564   1.435       .  S
C1226      C1516   1.434       .  S
O1227     Cu1235   2.001       .  S
O1227      C1237   1.275       .  A
O1228     Cu1235   2.001       .  S
O1228      C1238   1.275       .  A
O1229     Cu1235   2.003       .  S
O1229      C1239   1.276       .  A
O1230     Cu1235   2.003       .  S
O1230      C1240   1.276       .  A
O1231     Cu1236   2.014       .  S
O1231      C1240   1.277       .  A
O1232     Cu1236   2.015       .  S
O1232      C1239   1.277       .  A
O1233     Cu1236   2.017       .  S
O1233      C1238   1.277       .  A
O1234     Cu1236   2.017       .  S
O1234      C1237   1.277       .  A
Cu1235    Cu1236   2.380       .  S
C1237      C1626   1.434       .  S
C1238      C1582   1.434       .  S
C1239      C1522   1.435       .  S
C1240      C1513   1.434       .  S
N1241      N1242   1.323       .  A
N1241      C1245   1.347       .  A
N1241     Cu1249   2.076       .  S
N1242      C1243   1.343       .  A
N1242     Cu1248   2.067       .  S
C1243      C1244   1.377       .  A
C1243      H1246   1.082       .  S
C1244      C1245   1.381       .  A
C1244      C1514   1.436       .  S
C1245      H1247   1.082       .  S
Cu1248     N1251   2.068       .  S
Cu1249     N1259   2.077       .  S
Cu1250     N1252   2.076       .  S
Cu1250     N1258   2.076       .  S
N1251      N1252   1.322       .  A
N1251      C1255   1.344       .  A
N1252      C1253   1.347       .  A
C1253      C1254   1.381       .  A
C1253      H1256   1.082       .  S
C1254      C1255   1.378       .  A
C1254      C1510   1.437       .  S
C1255      H1257   1.082       .  S
N1258      N1259   1.324       .  A
N1258      C1262   1.345       .  A
N1259      C1260   1.346       .  A
C1260      C1261   1.379       .  A
C1260      H1263   1.082       .  S
C1261      C1262   1.379       .  A
C1261      C1511   1.437       .  S
C1262      H1264   1.082       .  S
N1265      N1266   1.323       .  A
N1265      C1269   1.347       .  A
N1265     Cu1273   2.076       .  S
N1266      C1267   1.344       .  A
N1266     Cu1272   2.070       .  S
C1267      C1268   1.378       .  A
C1267      H1270   1.082       .  S
C1268      C1269   1.381       .  A
C1268      C1507   1.438       .  S
C1269      H1271   1.082       .  S
Cu1272     N1275   2.070       .  S
Cu1273     N1283   2.077       .  S
Cu1274     N1276   2.077       .  S
Cu1274     N1282   2.078       .  S
N1275      N1276   1.323       .  A
N1275      C1279   1.344       .  A
N1276      C1277   1.348       .  A
C1277      C1278   1.382       .  A
C1277      H1280   1.082       .  S
C1278      C1279   1.378       .  A
C1278      C1517   1.438       .  S
C1279      H1281   1.082       .  S
N1282      N1283   1.324       .  A
N1282      C1286   1.346       .  A
N1283      C1284   1.346       .  A
C1284      C1285   1.379       .  A
C1284      H1287   1.082       .  S
C1285      C1286   1.379       .  A
C1285      C1512   1.437       .  S
C1286      H1288   1.082       .  S
O1289     Cu1297   2.002       .  S
O1289      C1299   1.276       .  A
O1290     Cu1297   2.002       .  S
O1290      C1300   1.276       .  A
O1291     Cu1297   2.004   1_556  S
O1291      C1301   1.276       .  A
O1292     Cu1297   2.004       .  S
O1292      C1302   1.276       .  A
O1293     Cu1298   2.017       .  S
O1293      C1302   1.277       .  A
O1294     Cu1298   2.017   1_556  S
O1294      C1301   1.277       .  A
O1295     Cu1298   2.016       .  S
O1295      C1300   1.277       .  A
O1296     Cu1298   2.016       .  S
O1296      C1299   1.277       .  A
Cu1297    Cu1298   2.380       .  S
C1299      C1505   1.434       .  S
C1300      C1689   1.435       .  S
C1301      C1700   1.435       .  S
C1302      C1509   1.435       .  S
N1303      N1304   1.322       .  A
N1303      C1307   1.348       .  A
N1303     Cu1311   2.077       .  S
N1304      C1305   1.344       .  A
N1304     Cu1310   2.067       .  S
C1305      C1306   1.378       .  A
C1305      H1308   1.082       .  S
C1306      C1307   1.382       .  A
C1306      C1502   1.438       .  S
C1307      H1309   1.082       .  S
Cu1310     N1313   2.067       .  S
Cu1311     N1321   2.078       .  S
Cu1312     N1314   2.078       .  S
Cu1312     N1320   2.078       .  S
N1313      N1314   1.322       .  A
N1313      C1317   1.343       .  A
N1314      C1315   1.348       .  A
C1315      C1316   1.382       .  A
C1315      H1318   1.082       .  S
C1316      C1317   1.378       .  A
C1316      C1530   1.437       .  S
C1317      H1319   1.082       .  S
N1320      N1321   1.325       .  A
N1320      C1324   1.346       .  A
N1321      C1322   1.346       .  A
C1322      C1323   1.379       .  A
C1322      H1325   1.082       .  S
C1323      C1324   1.379       .  A
C1323      C1504   1.437       .  S
C1324      H1326   1.082       .  S
N1327      N1328   1.323       .  A
N1327      C1331   1.347       .  A
N1327     Cu1335   2.075       .  S
N1328      C1329   1.343       .  A
N1328     Cu1334   2.067       .  S
C1329      C1330   1.378       .  A
C1329      H1332   1.082       .  S
C1330      C1331   1.381       .  A
C1330      C1571   1.436       .  S
C1331      H1333   1.082       .  S
Cu1334     N1337   2.067       .  S
Cu1335     N1345   2.076       .  S
Cu1336     N1338   2.076       .  S
Cu1336     N1344   2.077       .  S
N1337      N1338   1.322       .  A
N1337      C1341   1.343       .  A
N1338      C1339   1.347       .  A
C1339      C1340   1.381       .  A
C1339      H1342   1.082       .  S
C1340      C1341   1.378       .  A
C1340      C1506   1.436       .  S
C1341      H1343   1.082       .  S
N1344      N1345   1.324       .  A
N1344      C1348   1.346       .  A
N1345      C1346   1.346       .  A
C1346      C1347   1.379       .  A
C1346      H1349   1.082       .  S
C1347      C1348   1.379       .  A
C1347      C1503   1.437       .  S
C1348      H1350   1.082       .  S
N1351      N1352   1.322       .  A
N1351      C1355   1.348       .  A
N1351     Cu1359   2.079       .  S
N1352      C1353   1.344       .  A
N1352     Cu1358   2.067       .  S
C1353      C1354   1.378       .  A
C1353      H1356   1.082       .  S
C1354      C1355   1.382       .  A
C1354      C1497   1.438       .  S
C1355      H1357   1.082       .  S
Cu1358     N1361   2.067       .  S
Cu1359     N1369   2.080       .  S
Cu1360     N1362   2.077       .  S
Cu1360     N1368   2.077       .  S
N1361      N1362   1.322       .  A
N1361      C1365   1.343       .  A
N1362      C1363   1.348       .  A
C1363      C1364   1.382       .  A
C1363      H1366   1.082       .  S
C1364      C1365   1.378       .  A
C1364      C1532   1.437       .  S
C1365      H1367   1.082       .  S
N1368      N1369   1.325       .  A
N1368      C1372   1.346       .  A
N1369      C1370   1.346       .  A
C1370      C1371   1.380       .  A
C1370      H1373   1.082       .  S
C1371      C1372   1.379       .  A
C1371      C1499   1.438       .  S
C1372      H1374   1.082       .  S
N1375      N1376   1.323       .  A
N1375      C1379   1.347       .  A
N1375     Cu1383   2.075       .  S
N1376      C1377   1.344       .  A
N1376     Cu1382   2.068       .  S
C1377      C1378   1.378       .  A
C1377      H1380   1.082       .  S
C1378      C1379   1.381       .  A
C1378      C1576   1.436       .  S
C1379      H1381   1.082       .  S
Cu1382     N1385   2.068       .  S
Cu1383     N1393   2.075       .  S
Cu1384     N1386   2.077       .  S
Cu1384     N1392   2.078       .  S
N1385      N1386   1.323       .  A
N1385      C1389   1.343       .  A
N1386      C1387   1.347       .  A
C1387      C1388   1.381       .  A
C1387      H1390   1.082       .  S
C1388      C1389   1.378       .  A
C1388      C1495   1.437       .  S
C1389      H1391   1.082       .  S
N1392      N1393   1.324       .  A
N1392      C1396   1.346       .  A
N1393      C1394   1.346       .  A
C1394      C1395   1.379       .  A
C1394      H1397   1.082       .  S
C1395      C1396   1.380       .  A
C1395      C1500   1.438       .  S
C1396      H1398   1.082       .  S
O1399     Cu1407   2.017       .  S
O1399      C1409   1.277       .  A
O1400     Cu1407   2.017   1_545  S
O1400      C1410   1.277       .  A
O1401     Cu1407   2.017   1_556  S
O1401      C1411   1.277       .  A
O1402     Cu1407   2.017       .  S
O1402      C1412   1.277       .  A
O1403     Cu1408   2.005       .  S
O1403      C1412   1.276       .  A
O1404     Cu1408   2.004   1_556  S
O1404      C1411   1.276       .  A
O1405     Cu1408   2.005   1_545  S
O1405      C1410   1.276       .  A
O1406     Cu1408   2.005       .  S
O1406      C1409   1.276       .  A
Cu1407    Cu1408   2.380       .  S
C1409      C1695   1.436       .  S
C1410      C1501   1.436       .  S
C1411      C1684   1.436       .  S
C1412      C1498   1.436       .  S
N1413      N1414   1.323       .  A
N1413      C1417   1.347       .  A
N1413     Cu1421   2.075       .  S
N1414      C1415   1.343       .  A
N1414     Cu1420   2.067       .  S
C1415      C1416   1.378       .  A
C1415      H1418   1.082       .  S
C1416      C1417   1.381       .  A
C1416      C1515   1.436       .  S
C1417      H1419   1.082       .  S
Cu1420     N1423   2.067       .  S
Cu1421     N1431   2.076       .  S
Cu1422     N1424   2.076       .  S
Cu1422     N1430   2.077       .  S
N1423      N1424   1.322       .  A
N1423      C1427   1.343       .  A
N1424      C1425   1.347       .  A
C1425      C1426   1.381       .  A
C1425      H1428   1.082       .  S
C1426      C1427   1.378       .  A
C1426      C1491   1.437       .  S
C1427      H1429   1.082       .  S
N1430      N1431   1.324       .  A
N1430      C1434   1.346       .  A
N1431      C1432   1.346       .  A
C1432      C1433   1.379       .  A
C1432      H1435   1.082       .  S
C1433      C1434   1.379       .  A
C1433      C1494   1.437       .  S
C1434      H1436   1.082       .  S
N1437      N1438   1.323       .  A
N1437      C1441   1.347       .  A
N1437     Cu1445   2.077       .  S
N1438      C1439   1.344       .  A
N1438     Cu1444   2.070       .  S
C1439      C1440   1.378       .  A
C1439      H1442   1.082       .  S
C1440      C1441   1.381       .  A
C1440      C1489   1.438       .  S
C1441      H1443   1.082       .  S
Cu1444     N1447   2.070       .  S
Cu1445     N1455   2.077       .  S
Cu1446     N1448   2.077       .  S
Cu1446     N1454   2.077       .  S
N1447      N1448   1.323       .  A
N1447      C1451   1.344       .  A
N1448      C1449   1.348       .  A
C1449      C1450   1.382       .  A
C1449      H1452   1.082       .  S
C1450      C1451   1.378       .  A
C1450      C1558   1.438       .  S
C1451      H1453   1.082       .  S
N1454      N1455   1.324       .  A
N1454      C1458   1.346       .  A
N1455      C1456   1.346       .  A
C1456      C1457   1.379       .  A
C1456      H1459   1.082       .  S
C1457      C1458   1.379       .  A
C1457      C1493   1.437       .  S
C1458      H1460   1.082       .  S
O1461     Cu1469   2.016       .  S
O1461      C1471   1.277       .  A
O1462     Cu1469   2.016       .  S
O1462      C1472   1.277       .  A
O1463     Cu1469   2.017   1_545  S
O1463      C1473   1.277       .  A
O1464     Cu1469   2.017       .  S
O1464      C1474   1.277       .  A
O1465     Cu1470   2.003       .  S
O1465      C1474   1.276       .  A
O1466     Cu1470   2.003   1_545  S
O1466      C1473   1.276       .  A
O1467     Cu1470   2.003       .  S
O1467      C1472   1.276       .  A
O1468     Cu1470   2.002       .  S
O1468      C1471   1.276       .  A
Cu1469    Cu1470   2.380       .  S
C1471      C1680   1.434       .  S
C1472      C1496   1.435       .  S
C1473      C1492   1.435       .  S
C1474      C1710   1.435       .  S
O1475     Cu1483   2.003       .  S
O1475      C1485   1.276       .  A
O1476     Cu1483   2.003       .  S
O1476      C1486   1.276       .  A
O1477     Cu1483   2.003       .  S
O1477      C1487   1.276       .  A
O1478     Cu1483   2.003       .  S
O1478      C1488   1.276       .  A
O1479     Cu1484   2.018       .  S
O1479      C1488   1.277       .  A
O1480     Cu1484   2.018       .  S
O1480      C1487   1.277       .  A
O1481     Cu1484   2.018       .  S
O1481      C1486   1.277       .  A
O1482     Cu1484   2.018       .  S
O1482      C1485   1.277       .  A
Cu1483    Cu1484   2.380       .  S
C1485      C1508   1.436       .  S
C1486      C1704   1.436       .  S
C1487      C1490   1.436       .  S
C1488      C1713   1.436       .  S
C1489      C1490   1.206       .  T
C1491      C1492   1.206       .  T
C1493      C1494   1.206       .  T
C1495      C1496   1.206       .  T
C1497      C1498   1.206       .  T
C1499      C1500   1.206       .  T
C1501      C1502   1.206       .  T
C1503      C1504   1.206       .  T
C1505      C1506   1.205       .  T
C1507      C1508   1.206       .  T
C1509      C1510   1.206       .  T
C1511      C1512   1.206       .  T
C1513      C1514   1.205       .  T
C1515      C1516   1.205       .  T
C1517      C1518   1.206       .  T
C1519      C1520   1.206       .  T
C1521      C1522   1.205       .  T
C1523      C1524   1.206       .  T
C1525      C1526   1.205       .  T
C1527      C1528   1.206       .  T
C1529      C1530   1.206       .  T
C1531      C1532   1.206       .  T
C1533      C1534   1.205       .  T
C1535      C1536   1.206       .  T
C1537      C1538   1.206       .  T
C1539      C1540   1.205       .  T
C1541      C1542   1.207       .  T
C1543      C1544   1.206       .  T
C1545      C1546   1.206       .  T
C1547      C1548   1.205       .  T
C1549      C1550   1.207       .  T
C1551      C1552   1.206       .  T
C1553      C1554   1.206       .  T
C1555      C1556   1.205       .  T
C1557      C1558   1.206       .  T
C1559      C1560   1.206       .  T
C1561      C1562   1.206       .  T
C1563      C1564   1.206       .  T
C1565      C1566   1.206       .  T
C1567      C1568   1.206       .  T
C1569      C1570   1.206       .  T
C1571      C1572   1.205       .  T
C1573      C1574   1.205       .  T
C1575      C1576   1.205       .  T
C1577      C1578   1.205       .  T
C1579      C1580   1.206       .  T
C1581      C1582   1.205       .  T
C1583      C1584   1.205       .  T
C1585      C1586   1.206       .  T
C1587      C1588   1.205       .  T
C1589      C1590   1.206       .  T
C1591      C1592   1.206       .  T
C1593      C1594   1.206       .  T
C1595      C1596   1.206       .  T
C1597      C1598   1.206       .  T
C1599      C1600   1.205       .  T
C1601      C1602   1.205   1_455  T
C1603      C1604   1.206       .  T
C1605      C1606   1.206       .  T
C1607      C1608   1.205       .  T
C1609      C1610   1.205       .  T
C1611      C1612   1.206       .  T
C1613      C1614   1.207       .  T
C1615      C1616   1.206       .  T
C1617      C1618   1.205       .  T
C1619      C1620   1.206       .  T
C1621      C1622   1.205       .  T
C1623      C1624   1.206       .  T
C1625      C1626   1.205       .  T
C1627      C1628   1.205       .  T
C1629      C1630   1.206       .  T
C1631      C1632   1.206       .  T
C1633      C1634   1.206       .  T
C1635      C1636   1.206       .  T
C1637      C1638   1.206       .  T
C1639      C1640   1.205       .  T
C1641      C1642   1.206       .  T
C1643      C1644   1.207       .  T
C1645      C1646   1.206       .  T
C1647      C1648   1.206       .  T
C1649      C1650   1.206       .  T
C1651      C1652   1.206       .  T
C1653      C1654   1.206       .  T
C1655      C1656   1.206       .  T
C1657      C1658   1.205       .  T
C1659      C1660   1.206       .  T
C1661      C1662   1.206       .  T
C1663      C1664   1.206       .  T
C1665      C1666   1.206       .  T
C1667      C1668   1.206       .  T
C1669      C1670   1.206       .  T
C1671      C1672   1.206       .  T
C1673      C1674   1.206       .  T
C1675      C1676   1.206       .  T
C1677      C1678   1.206       .  T
C1679      C1680   1.205       .  T
C1681      C1682   1.205       .  T
C1683      C1684   1.206       .  T
C1685      C1686   1.206       .  T
C1687      C1688   1.206       .  T
C1689      C1690   1.206       .  T
C1691      C1692   1.205       .  T
C1693      C1694   1.206       .  T
C1695      C1696   1.206       .  T
C1697      C1698   1.206       .  T
C1699      C1700   1.206       .  T
C1701      C1702   1.205       .  T
C1703      C1704   1.206       .  T
C1705      C1706   1.206       .  T
C1707      C1708   1.206       .  T
C1709      C1710   1.206       .  T
C1711      C1712   1.205       .  T
C1713      C1714   1.206       .  T
C1715      C1716   1.206       .  T
C1717      C1718   1.206       .  T
C1719      C1720   1.206       .  T
C1721      C1722   1.206       .  T
C1723      C1724   1.206       .  T
C1725      C1726   1.206       .  T
C1727      C1728   1.206       .  T
