geometry optimzed in LAMMPS
_audit_creation_date              2020-12-01 
_audit_creation_method            'lammps2cif' 
_symmetry_space_group_name_H-M    'P1' 
_symmetry_Int_Tables_number       1 
_symmetry_cell_setting            triclinic 
loop_ 
_symmetry_equiv_pos_as_xyz 
  x,y,z 
_cell_length_a                    80.96328451 
_cell_length_b                    81.67363676548153 
_cell_length_c                    27.13177207709123 
_cell_angle_alpha                 89.86543533585156 
_cell_angle_beta                  90.06585251272386 
_cell_angle_gamma                 143.52228536906784 
loop_ 
_atom_site_label 
_atom_site_type_symbol 
_atom_site_fract_x 
_atom_site_fract_y 
_atom_site_fract_z 
_atom_site_charge 
O1          O  0.45284877  0.47179678  0.46787304    -0.72300
O2          O  0.47747706  0.45814064  0.36792924    -0.73300
O3          O  0.47130962  0.45369214  0.47193109    -0.61900
O4          O  0.45918385  0.47661559  0.36399414    -0.70300
O5          O  0.50266287  0.51985977  0.37191189    -0.69800
O6          O  0.51446075  0.49686822  0.48162448    -0.61100
O7          O  0.52059882  0.50128033  0.37797643    -0.73600
O8          O  0.49608656  0.51508545  0.47662195    -0.72400
Cu9        Cu  0.46368385  0.46356675  0.41766540     1.04600
Cu10       Cu  0.50995191  0.50977715  0.42726242     1.04300
C11         C  0.47041611  0.49533798  0.48839713     0.93900
C12         C  0.50328640  0.47783318  0.35724534     0.93100
C13         C  0.49471228  0.47151704  0.49401043     0.85200
C14         C  0.47903942  0.50184108  0.35060377     0.91500
N15         N  0.90420650  0.51613056  0.09430281    -0.26600
N16         N  0.88127225  0.50153814  0.11855915    -0.34500
C17         C  0.88337067  0.49747795  0.16494777     0.01700
C18         C  0.90873925  0.50980163  0.16972352     0.07700
C19         C  0.92145214  0.52162838  0.12422934    -0.05400
H20         H  0.86750572  0.48613088  0.19287541     0.08400
H21         H  0.94189168  0.53373693  0.11357878     0.09600
Cu22       Cu  0.84856488  0.48790673  0.08587672     0.44200
Cu23       Cu  0.91044916  0.52677802  0.02111681     0.42000
Cu24       Cu  0.85592797  0.50380173  0.95417392     0.43900
N25         N  0.82011668  0.47874088  0.04538015    -0.34000
N26         N  0.82311057  0.48533757  0.99851642    -0.28300
C27         C  0.80088407  0.47650577  0.98457654    -0.04400
C28         C  0.78301388  0.46346660  0.02436402     0.07800
C29         C  0.79579011  0.46518432  0.06213402     0.01600
H30         H  0.79738501  0.47826422  0.94759669     0.09300
H31         H  0.78781399  0.45682327  0.09895212     0.08400
N32         N  0.89070746  0.52126158  0.92059456    -0.35500
N33         N  0.91087927  0.53026074  0.94579716    -0.27600
C34         C  0.92924534  0.53827495  0.91439425    -0.02900
C35         C  0.92038075  0.53422256  0.86678065     0.05700
C36         C  0.89573797  0.52324426  0.87218423     0.03800
H37         H  0.94638464  0.54426737  0.92573061     0.08900
H38         H  0.88177347  0.51594665  0.84310200     0.07800
N39         N  0.54016415  0.42498488  0.84963452    -0.26600
N40         N  0.54774206  0.41807046  0.82384714    -0.34500
C41         C  0.54014377  0.41429600  0.77657963     0.01700
C42         C  0.52676884  0.41864037  0.77284446     0.07700
C43         C  0.52737515  0.42554532  0.81989060    -0.05400
H44         H  0.54475060  0.40957976  0.74691511     0.08400
H45         H  0.52079036  0.43235599  0.83122439     0.09600
Cu46       Cu  0.56919778  0.41554355  0.85459469     0.44200
Cu47       Cu  0.54984979  0.43634089  0.92269407     0.42000
Cu48       Cu  0.58800774  0.43557573  0.98510635     0.43900
N49         N  0.58994120  0.41451853  0.89632972    -0.34000
N50         N  0.59749158  0.42263942  0.94282060    -0.28300
C51         C  0.61079625  0.41972622  0.95851179    -0.04400
C52         C  0.61128166  0.40893473  0.92043657     0.07800
C53         C  0.59783647  0.40576599  0.88161974     0.01600
H54         H  0.61886190  0.42442673  0.99534178     0.09300
H55         H  0.59409846  0.39775210  0.84536193     0.08400
N56         N  0.57502000  0.44668958  0.01928332    -0.35500
N57         N  0.56159735  0.44766273  0.99539612    -0.27600
C58         C  0.55583615  0.45537224  0.02655678    -0.02900
C59         C  0.56600787  0.45934729  0.07253558     0.05700
C60         C  0.57777491  0.45336232  0.06673283     0.03800
H61         H  0.54388743  0.45660515  0.01694417     0.08900
H62         H  0.58722890  0.45340982  0.09515021     0.07800
N63         N  0.65166699  0.40450510  0.94201963    -0.26600
N64         N  0.62632615  0.37803665  0.94139161    -0.34500
C65         C  0.60819507  0.37549065  0.92922702     0.01700
C66         C  0.62286954  0.40157727  0.92223387     0.07700
C67         C  0.65026842  0.41942988  0.93111926    -0.05400
H68         H  0.58584178  0.35632654  0.93004853     0.08400
H69         H  0.66766643  0.44167138  0.93291788     0.09600
Cu70       Cu  0.61701473  0.34736355  0.96866405     0.44200
Cu71       Cu  0.68651386  0.41975101  0.96604466     0.42000
Cu72       Cu  0.66933732  0.37543693  0.05529842     0.43900
N73         N  0.61335525  0.32332789  0.01154551    -0.34000
N74         N  0.63150238  0.33372362  0.04603355    -0.28300
C75         C  0.62409217  0.31340488  0.06614095    -0.04400
C76         C  0.60037930  0.28907647  0.04276786     0.07800
C77         C  0.59410120  0.29606654  0.00831854     0.01600
H78         H  0.63647557  0.31655292  0.09257726     0.09300
H79         H  0.57749822  0.28258450  0.98151374     0.08400
N80         N  0.70973063  0.41410912  0.03816564    -0.35500
N81         N  0.71617292  0.42957269  0.00238162    -0.27600
C82         C  0.74359054  0.45037538  0.99308132    -0.02900
C83         C  0.75484861  0.44790604  0.02498239     0.05700
C84         C  0.73286631  0.42484202  0.05321737     0.03800
H85         H  0.75426615  0.46545713  0.96403500     0.08900
H86         H  0.73322224  0.41520361  0.07969837     0.07800
N87         N  0.53793010  0.14517216  0.97672516    -0.26600
N88         N  0.54457239  0.16334631  0.94979522    -0.34500
C89         C  0.54507180  0.15937439  0.90183816     0.01700
C90         C  0.53838673  0.13751282  0.89863716     0.07700
C91         C  0.53380770  0.12904075  0.94702595    -0.05400
H92         H  0.55175020  0.17266384  0.87226761     0.08400
H93         H  0.52925880  0.11318917  0.96017040     0.09600
Cu94       Cu  0.55596818  0.19420064  0.98321531     0.44200
Cu95       Cu  0.54016904  0.14645569  0.05289766     0.42000
Cu96       Cu  0.57481392  0.20614532  0.11757053     0.43900
N97         N  0.57043956  0.22478686  0.02659056    -0.34000
N98         N  0.57875801  0.23023051  0.07305089    -0.28300
C99         C  0.58988379  0.25354844  0.08655249    -0.04400
C100        C  0.58801295  0.26281328  0.04715139     0.07800
C101        C  0.57548752  0.24404173  0.00998158     0.01600
H102        H  0.59910428  0.26330529  0.12214691     0.09300
H103        H  0.57182303  0.24517626  0.97253941     0.08400
N104        N  0.56316625  0.17486501  0.15195082    -0.35500
N105        N  0.54955751  0.15265643  0.12726640    -0.27600
C106        C  0.54446120  0.13582415  0.15702793    -0.02900
C107        C  0.55541434  0.14772368  0.20328862     0.05700
C108        C  0.56714313  0.17264176  0.19864460     0.03800
H109        H  0.53371681  0.11632107  0.14532951     0.08900
H110        H  0.57840087  0.18834478  0.22642415     0.07800
O111        O  0.55822164  0.06164656  0.50197893    -0.72300
O112        O  0.55386727  0.02426142  0.60989711    -0.73300
O113        O  0.55147441  0.02177712  0.50601974    -0.61900
O114        O  0.56086877  0.06465135  0.60739542    -0.70300
O115        O  0.51527522  0.03171697  0.60647670    -0.69800
O116        O  0.50555705  0.98755843  0.50930870    -0.61100
O117        O  0.50833626  0.99165275  0.61238445    -0.73600
O118        O  0.51244315  0.02770577  0.50103923    -0.72400
Cu119      Cu  0.55770901  0.04429472  0.55621897     1.04600
Cu120      Cu  0.50884515  0.00859388  0.55751654     1.04300
C121        C  0.53626713  0.05055620  0.48357847     0.93900
C122        C  0.53008318  0.00153093  0.62757584     0.93100
C123        C  0.52728685  0.99791739  0.49241421     0.85200
C124        C  0.53919663  0.05471733  0.62324622     0.91500
O125        O  0.02522809  0.55161944  0.47355010    -0.72300
O126        O  0.05999788  0.55272980  0.58177875    -0.73300
O127        O  0.06146295  0.55296714  0.47801771    -0.61900
O128        O  0.02360296  0.55119750  0.57857141    -0.70300
O129        O  0.98756459  0.50560928  0.58177824    -0.69800
O130        O  0.02447529  0.50729346  0.47929482    -0.61100
O131        O  0.02370955  0.50706399  0.58349053    -0.73600
O132        O  0.98847528  0.50601591  0.47723107    -0.72400
Cu133      Cu  0.04384846  0.55374858  0.52815335     1.04600
Cu134      Cu  0.00481676  0.50493426  0.53046621     1.04300
C135        C  0.00105783  0.52835030  0.45832941     0.93900
C136        C  0.04776976  0.53029741  0.59893642     0.93100
C137        C  0.04853736  0.53005091  0.46240306     0.85200
C138        C  0.99976876  0.52834771  0.59611240     0.91500
N139        N  0.42468786  0.54387883  0.83621298    -0.26600
N140        N  0.41833640  0.55237293  0.81211262    -0.34500
C141        C  0.41603805  0.54693665  0.76364433     0.01700
C142        C  0.42107599  0.53427204  0.75753210     0.07700
C143        C  0.42649444  0.53286304  0.80450661    -0.05400
H144        H  0.41083292  0.55159624  0.73538692     0.08400
H145        H  0.43194992  0.52483481  0.81509333     0.09600
Cu146      Cu  0.41402881  0.57131419  0.84888662     0.44200
Cu147      Cu  0.43148172  0.54746168  0.91078567     0.42000
Cu148      Cu  0.43194556  0.58362094  0.98249258     0.43900
N149        N  0.41473174  0.59193265  0.89692093    -0.34000
N150        N  0.42266639  0.59753414  0.94366521    -0.28300
C151        C  0.42206974  0.61221061  0.96293169    -0.04400
C152        C  0.41296873  0.61570079  0.92713424     0.07800
C153        C  0.40824931  0.60241589  0.88586813     0.01600
H154        H  0.42697155  0.61901262  0.00088005     0.09300
H155        H  0.40086257  0.60068078  0.85031958     0.08400
N156        N  0.43750572  0.56492975  0.01314106    -0.35500
N157        N  0.43729188  0.55144601  0.98577824    -0.27600
C158        C  0.44071439  0.54094512  0.01462335    -0.02900
C159        C  0.44293201  0.54789460  0.06302503     0.05700
C160        C  0.44104340  0.56335539  0.06057153     0.03800
H161        H  0.44195107  0.52958468  0.00089171     0.08900
H162        H  0.44176608  0.57241755  0.09101160     0.07800
N163        N  0.38472492  0.63364220  0.94999852    -0.26600
N164        N  0.41101447  0.65704402  0.96209920    -0.34500
C165        C  0.42546031  0.65475352  0.95322369     0.01700
C166        C  0.40754830  0.62896282  0.93356415     0.07700
C167        C  0.38190875  0.61612672  0.93206239    -0.05400
H168        H  0.44710216  0.67021425  0.96255501     0.08400
H169        H  0.36224550  0.59481986  0.92285808     0.09600
Cu170      Cu  0.42518709  0.68982455  0.99500642     0.44200
Cu171      Cu  0.35294593  0.62430104  0.96930957     0.42000
Cu172      Cu  0.37233738  0.66691797  0.06869152     0.43900
N173        N  0.43109119  0.71664455  0.03182387    -0.34000
N174        N  0.41237280  0.70790457  0.06227004    -0.28300
C175        C  0.42115521  0.72959884  0.07817064    -0.04400
C176        C  0.44631774  0.75309997  0.05590251     0.07800
C177        C  0.45202099  0.74416951  0.02666611     0.01600
H178        H  0.40886216  0.72805619  0.10049269     0.09300
H179        H  0.46947415  0.75657917  0.00190354     0.08400
N180        N  0.33169523  0.63084308  0.04625666    -0.34400
N181        N  0.32491100  0.61670434  0.00707427    -0.27600
C182        C  0.29796431  0.59785399  0.99653219    -0.02900
C183        C  0.28729256  0.60008044  0.03109615     0.05700
C184        C  0.30916849  0.62107076  0.06218619     0.03800
H185        H  0.28714756  0.58403792  0.96532707     0.08900
H186        H  0.30927343  0.63000131  0.09178895     0.07800
N187        N  0.13472568  0.52710625  0.09971680    -0.26600
N188        N  0.15638788  0.53959203  0.12592312    -0.34500
C189        C  0.15238364  0.54071054  0.17332356     0.01700
C190        C  0.12691277  0.52830046  0.17711515     0.07700
C191        C  0.11643907  0.51998727  0.12956809    -0.05400
H192        H  0.16766018  0.55125176  0.20196624     0.08400
H193        H  0.09731197  0.51036410  0.11709187     0.09600
Cu194      Cu  0.19120325  0.55635900  0.09460902     0.44200
Cu195      Cu  0.13235363  0.52350227  0.02363508     0.42000
Cu196      Cu  0.19070928  0.55262803  0.96020590     0.43900
N197        N  0.22208506  0.56946812  0.05349067    -0.34000
N198        N  0.22111133  0.56688835  0.00505500    -0.28300
C199        C  0.24364690  0.57650562  0.99008480    -0.04400
C200        C  0.25979182  0.58596413  0.03084591     0.07800
C201        C  0.24562865  0.58133668  0.07040823     0.01600
H202        H  0.24845175  0.57753741  0.95202051     0.09300
H203        H  0.25198584  0.58627787  0.10868124     0.08400
N204        N  0.15876838  0.53916153  0.92414296    -0.35500
N205        N  0.13713886  0.52805558  0.94773818    -0.27600
C206        C  0.12134599  0.52379555  0.91561974    -0.02900
C207        C  0.13358233  0.53269296  0.86944831     0.05700
C208        C  0.15730735  0.54227813  0.87623974     0.03800
H209        H  0.10306973  0.51618640  0.92574334     0.08900
H210        H  0.17336063  0.55259406  0.84934271     0.07800
N211        N  0.52034046  0.90405561  0.98539351    -0.26600
N212        N  0.51265250  0.88544643  0.95786210    -0.34500
C213        C  0.51318311  0.89072820  0.91032964     0.01700
C214        C  0.52150373  0.91373831  0.90829606     0.07700
C215        C  0.52567851  0.92132072  0.95693147    -0.05400
H216        H  0.50675812  0.87801843  0.87982187     0.08400
H217        H  0.53002783  0.93685645  0.97168292     0.09600
Cu218      Cu  0.49829302  0.85217153  0.98976878     0.44200
Cu219      Cu  0.51850824  0.90279513  0.06032290     0.42000
Cu220      Cu  0.48400015  0.84371197  0.12514511     0.43900
N221        N  0.48156874  0.82007580  0.03366650    -0.34000
N222        N  0.47534690  0.81654003  0.08110908    -0.28300
C223        C  0.46248979  0.79254045  0.09628931    -0.04400
C224        C  0.46102563  0.78063770  0.05711682     0.07800
C225        C  0.47334493  0.79862731  0.01804452     0.01600
H226        H  0.45451748  0.78421288  0.13317250     0.09300
H227        H  0.47493526  0.79565309  0.98038533     0.08400
N228        N  0.49586235  0.87504889  0.15840290    -0.35500
N229        N  0.50880643  0.89688261  0.13312711    -0.27600
C230        C  0.51349192  0.91358425  0.16198147    -0.02900
C231        C  0.50291366  0.90179287  0.20812665     0.05700
C232        C  0.49217269  0.87747056  0.20488278     0.03800
H233        H  0.52447045  0.93320782  0.15019874     0.08900
H234        H  0.48231445  0.86263376  0.23401472     0.07800
C235        C  0.11854086  0.53421988  0.73749294    -0.13700
C236        C  0.10684751  0.54035347  0.74602333     0.16700
C237        C  0.10561200  0.54551705  0.79432113     0.03000
C238        C  0.11501479  0.54348064  0.83356194    -0.12200
C239        C  0.12565756  0.53618518  0.82574723    -0.03300
C240        C  0.12792578  0.53204993  0.77700543     0.02200
C241        C  0.09222527  0.53730239  0.70594632     0.09100
N242        N  0.09406174  0.55208437  0.80422176     0.65400
H243        H  0.11367792  0.54736794  0.87041833     0.18300
N244        N  0.13750766  0.52346229  0.76722804     0.75900
H245        H  0.11903131  0.52970439  0.70050575     0.09800
C246        C  0.10642539  0.55677635  0.66781775     0.03500
C247        C  0.09143052  0.55397892  0.63332912    -0.05200
C248        C  0.06229802  0.53163850  0.63557183    -0.23600
C249        C  0.04806492  0.51141521  0.67248071     0.12800
C250        C  0.06314527  0.51454892  0.70742270    -0.12700
N251        N  0.13598983  0.57967442  0.66391821     0.64500
H252        H  0.10264847  0.56933435  0.60459880     0.12300
N253        N  0.01849444  0.48831299  0.67672489     0.61100
H254        H  0.05212004  0.49932399  0.73635560     0.08500
O255        O  0.16147895  0.54052690  0.74940909    -0.40400
O256        O  0.12011055  0.49806343  0.76497469    -0.39500
O257        O  0.06937768  0.53349642  0.81958064    -0.39500
O258        O  0.10998642  0.57698925  0.80766607    -0.37200
O259        O  0.00428185  0.46592065  0.65638692    -0.38100
O260        O  0.00767522  0.48806740  0.71070370    -0.34300
O261        O  0.14683311  0.57949878  0.63096462    -0.35700
O262        O  0.15036199  0.60219916  0.68385208    -0.40000
C263        C  0.09897391  0.54930938  0.37443992    -0.13700
C264        C  0.08035847  0.52717466  0.34135681     0.16700
C265        C  0.05159526  0.50546065  0.35022086     0.03000
C266        C  0.04194549  0.50687307  0.39021191    -0.12200
C267        C  0.06041810  0.52937023  0.42256097    -0.03300
C268        C  0.08930598  0.55050459  0.41511818     0.02200
C269        C  0.09153168  0.52678415  0.29902046     0.09100
N270        N  0.03189625  0.48115799  0.32065812     0.65400
H271        H  0.01971524  0.49016336  0.39582591     0.18300
N272        N  0.10902523  0.57238372  0.44977736     0.75900
H273        H  0.12115537  0.56565481  0.36880482     0.09800
C274        C  0.08879625  0.53032907  0.25026909     0.03500
C275        C  0.10030324  0.53052465  0.21141842    -0.05200
C276        C  0.11502670  0.52766364  0.22007066    -0.23600
C277        C  0.11797070  0.52440189  0.26912954     0.12800
C278        C  0.10618207  0.52393138  0.30797072    -0.12700
N279        N  0.07575676  0.53526842  0.23967517     0.64500
H280        H  0.09835069  0.53374978  0.17439335     0.12300
N281        N  0.13185674  0.52046389  0.28030031     0.61100
H282        H  0.10841790  0.52126231  0.34535014     0.08500
O283        O  0.12157030  0.59560478  0.44055881    -0.40400
O284        O  0.11870647  0.57055939  0.48214251    -0.39500
O285        O  0.02476943  0.46122938  0.33355965    -0.39500
O286        O  0.01610754  0.47661264  0.29250306    -0.37200
O287        O  0.15667926  0.54070100  0.29514242    -0.38100
O288        O  0.11752868  0.49638974  0.28852726    -0.34300
O289        O  0.09041767  0.55975922  0.23879819    -0.35700
O290        O  0.05244175  0.51678656  0.21849074    -0.40000
C291        C  0.50257632  0.94144364  0.41907444    -0.13700
C292        C  0.52042549  0.95658531  0.37825082     0.16700
C293        C  0.54092186  0.98523103  0.37645349     0.03000
C294        C  0.54302880  0.99819207  0.41472835    -0.12200
C295        C  0.52482402  0.98307281  0.45494545    -0.03300
C296        C  0.50462815  0.95446168  0.45746780     0.02200
C297        C  0.51550355  0.94188515  0.33554284     0.09100
N298        N  0.55971346  0.00148667  0.33583119     0.65400
H299        H  0.55860709  0.02013644  0.41240766     0.18300
N300        N  0.48680860  0.93854835  0.49934220     0.75900
H301        H  0.48666104  0.91942154  0.42061926     0.09800
C302        C  0.51736769  0.92619556  0.33899880     0.03500
C303        C  0.51203405  0.91230001  0.29748609    -0.05200
C304        C  0.50529808  0.91418963  0.25212707    -0.23600
C305        C  0.50297272  0.92956552  0.24906068     0.12800
C306        C  0.50787714  0.94302946  0.29072819    -0.12700
N307        N  0.52615812  0.92541915  0.38351257     0.64500
H308        H  0.51432436  0.90098700  0.30026077     0.12300
N309        N  0.49493393  0.93120743  0.20446070     0.61100
H310        H  0.50559923  0.95436190  0.28813311     0.08500
O311        O  0.49447567  0.93572736  0.53482090    -0.40400
O312        O  0.46150748  0.92222439  0.49559944    -0.39500
O313        O  0.55696689  0.01092899  0.30552768    -0.39500
O314        O  0.58236085  0.01177996  0.33727414    -0.37200
O315        O  0.46953208  0.91384889  0.19699701    -0.38100
O316        O  0.51291618  0.95350217  0.18045108    -0.34300
O317        O  0.50840585  0.90422454  0.41044547    -0.35700
O318        O  0.55158667  0.94248449  0.38937635    -0.40000
C319        C  0.54505065  0.97781122  0.71529232    -0.13700
C320        C  0.51933463  0.95554970  0.73906416     0.16700
C321        C  0.49707502  0.94794677  0.72474908     0.03000
C322        C  0.50114747  0.96313752  0.68833695    -0.12200
C323        C  0.52714487  0.98605105  0.66543170    -0.03300
C324        C  0.54916090  0.99297534  0.67873339     0.02200
C325        C  0.51790574  0.94346993  0.78267630     0.09100
N326        N  0.47051461  0.92568923  0.74804139     0.65400
H327        H  0.48381137  0.95714314  0.67873873     0.18300
N328        N  0.57577675  0.01509432  0.65552617     0.75900
H329        H  0.56231449  0.98383192  0.72599363     0.09800
C330        C  0.50255226  0.91653832  0.78350581     0.03500
C331        C  0.50425150  0.90745736  0.82450531    -0.05200
C332        C  0.52125159  0.92479673  0.86501429    -0.23600
C333        C  0.53666287  0.95187995  0.86384045     0.12800
C334        C  0.53462324  0.96071284  0.82315620    -0.12700
N335        N  0.48600412  0.89842202  0.74250399     0.64500
H336        H  0.49206906  0.88662935  0.82440760     0.12300
N337        N  0.55557610  0.97133986  0.90217346     0.61100
H338        H  0.54683999  0.98158284  0.82258593     0.08500
O339        O  0.58138991  0.00975946  0.62105577    -0.40400
O340        O  0.59536116  0.03797679  0.67726820    -0.39500
O341        O  0.46503033  0.93092145  0.78308330    -0.39500
O342        O  0.45070258  0.90345190  0.72466441    -0.37200
O343        O  0.58060226  0.98681764  0.89887111    -0.38100
O344        O  0.54946910  0.97819866  0.93040920    -0.34300
O345        O  0.49683762  0.89807294  0.70996542    -0.35700
O346        O  0.45990138  0.87781701  0.74675672    -0.40000
C347        C  0.53397185  0.11579766  0.76888233    -0.13700
C348        C  0.54093678  0.10495845  0.77852412     0.16700
C349        C  0.54836064  0.10630033  0.82678038     0.03000
C350        C  0.54804140  0.11765087  0.86445441    -0.12200
C351        C  0.54020596  0.12773295  0.85558891    -0.03300
C352        C  0.53364039  0.12723663  0.80676818     0.02200
C353        C  0.54074131  0.09267645  0.73785582     0.09100
N354        N  0.55521311  0.09520443  0.83875073     0.65400
H355        H  0.55386449  0.11834692  0.90108018     0.18300
N356        N  0.52572396  0.13732475  0.79496522     0.75900
H357        H  0.52871224  0.11533154  0.73173454     0.09800
C358        C  0.51626230  0.06961742  0.71167224     0.03500
C359        C  0.51663747  0.05827859  0.67400953    -0.05200
C360        C  0.54105652  0.06920284  0.66164259    -0.23600
C361        C  0.56578501  0.09266977  0.68765189     0.12800
C362        C  0.56536920  0.10415008  0.72516670    -0.12700
N363        N  0.49043743  0.05653826  0.72441973     0.64500
H364        H  0.49736444  0.04036977  0.65504904     0.12300
N365        N  0.59136573  0.10482769  0.67769144     0.61100
H366        H  0.58438000  0.12205662  0.74470301     0.08500
O367        O  0.50028535  0.12037358  0.78992171    -0.40400
O368        O  0.54359011  0.16109981  0.77654741    -0.39500
O369        O  0.58024818  0.11142321  0.84671188    -0.39500
O370        O  0.53625677  0.07059268  0.85347176    -0.37200
O371        O  0.60937838  0.12619725  0.65121166    -0.38100
O372        O  0.59871475  0.09901195  0.70529852    -0.34300
O373        O  0.48100753  0.06035911  0.69756745    -0.35700
O374        O  0.47429143  0.03637540  0.75383861    -0.40000
C375        C  0.55464853  0.12832012  0.33346172    -0.13700
C376        C  0.55181314  0.10935246  0.32239745     0.16700
C377        C  0.55159316  0.10431255  0.27271134     0.03000
C378        C  0.55352855  0.11760218  0.23521928    -0.12200
C379        C  0.55547574  0.13599991  0.24572282    -0.03300
C380        C  0.55646115  0.14162342  0.29580206     0.02200
C381        C  0.54788815  0.09415861  0.36304857     0.09100
N382        N  0.54984882  0.08603334  0.25949026     0.65400
H383        H  0.55366192  0.11347022  0.19756038     0.18300
N384        N  0.55801713  0.15970824  0.30948785     0.75900
H385        H  0.55471100  0.13226391  0.37151161     0.09800
C386        C  0.56956372  0.10762827  0.39583062     0.03500
C387        C  0.56509188  0.09303669  0.43465937    -0.05200
C388        C  0.53910947  0.06481317  0.44211540    -0.23600
C389        C  0.51725841  0.05123509  0.40899909     0.12800
C390        C  0.52188380  0.06596889  0.36991602    -0.12700
N391        N  0.59660289  0.13603158  0.38930112     0.64500
H392        H  0.58224486  0.10401523  0.45911771     0.12300
N393        N  0.49053862  0.02243514  0.41328615     0.61100
H394        H  0.50503762  0.05536718  0.34489874     0.08500
O395        O  0.58070902  0.18341565  0.32541043    -0.40400
O396        O  0.53584592  0.14979160  0.31788939    -0.39500
O397        O  0.52800231  0.06334485  0.23936080    -0.39500
O398        O  0.57188694  0.09529754  0.25641123    -0.37200
O399        O  0.47112014  0.01468113  0.43414867    -0.38100
O400        O  0.48467980  0.00577937  0.38593280    -0.34300
O401        O  0.60418310  0.15379983  0.41631401    -0.35700
O402        O  0.61462852  0.14244762  0.36550796    -0.40000
C403        C  0.95349262  0.50826065  0.69850014    -0.13700
C404        C  0.96118614  0.53094137  0.69837237     0.16700
C405        C  0.98152632  0.55257111  0.66460834     0.03000
C406        C  0.99368514  0.55116303  0.63192231    -0.12200
C407        C  0.98610635  0.52852448  0.63197579    -0.03300
C408        C  0.96565352  0.50680799  0.66580382     0.02200
C409        C  0.95039918  0.53312382  0.73785949     0.09100
N410        N  0.99000642  0.57608474  0.66269449     0.65400
H411        H  0.00912133  0.56794832  0.60611160     0.18300
N412        N  0.95825445  0.48402780  0.66998496     0.75900
H413        H  0.93876119  0.49205306  0.72558874     0.09800
C414        C  0.92169554  0.51279933  0.74522341     0.03500
C415        C  0.91249364  0.51426816  0.78633652    -0.05200
C416        C  0.93136852  0.53536644  0.82125306    -0.23600
C417        C  0.96011342  0.55587235  0.81345343     0.12800
C418        C  0.96928303  0.55458882  0.77199629    -0.12700
N419        N  0.90154358  0.49020282  0.71200667     0.64500
H420        H  0.89037646  0.49813694  0.79192293     0.12300
N421        N  0.98041054  0.57824470  0.84696365     0.61100
H422        H  0.99130614  0.56993919  0.76749098     0.08500
O423        O  0.93619800  0.46149199  0.64984964    -0.40400
O424        O  0.96891425  0.48408539  0.70406492    -0.39500
O425        O  0.01254738  0.59817036  0.68287603    -0.39500
O426        O  0.97956205  0.57701551  0.63036262    -0.37200
O427        O  0.99199559  0.57771175  0.87661709    -0.38100
O428        O  0.99211086  0.60102444  0.83728020    -0.34300
O429        O  0.88865756  0.46704537  0.72380648    -0.35700
O430        O  0.89156266  0.49141364  0.67899251    -0.40000
C431        C  0.94756039  0.51174844  0.25515727    -0.13700
C432        C  0.94321258  0.51572353  0.30100053     0.16700
C433        C  0.92692597  0.51705239  0.30365744     0.03000
C434        C  0.91527708  0.51433444  0.26059925    -0.12200
C435        C  0.92014557  0.51097883  0.21448254    -0.03300
C436        C  0.93635305  0.50950182  0.21205245     0.02200
C437        C  0.95741128  0.51999036  0.34449933     0.09100
N438        N  0.92347613  0.52290506  0.34903306     0.65400
H439        H  0.90329729  0.51597735  0.26303484     0.18300
N440        N  0.94098561  0.50488234  0.16648987     0.75900
H441        H  0.95996516  0.51059943  0.25280846     0.09800
C442        C  0.94292383  0.49963893  0.38107432     0.03500
C443        C  0.95767544  0.50319346  0.41802171    -0.05200
C444        C  0.98686219  0.52669238  0.41937383    -0.23600
C445        C  0.00134332  0.54729687  0.38300812     0.12800
C446        C  0.98650891  0.54373231  0.34614431    -0.12700
N447        N  0.91337666  0.47453470  0.37985624     0.64500
H448        H  0.94610089  0.48714289  0.44549066     0.12300
N449        N  0.03100005  0.57108512  0.38081619     0.61100
H450        H  0.99783754  0.55924114  0.31757789     0.08500
O451        O  0.96436611  0.52470416  0.14568446    -0.40400
O452        O  0.92481658  0.48055749  0.15417752    -0.39500
O453        O  0.94146588  0.54769055  0.36138639    -0.39500
O454        O  0.89978909  0.50447745  0.36894038    -0.37200
O455        O  0.04324528  0.57067105  0.35340667    -0.38100
O456        O  0.04387669  0.59398275  0.39464743    -0.34300
O457        O  0.90286446  0.45337171  0.36169119    -0.35700
O458        O  0.89896348  0.47160277  0.40888528    -0.40000
C459        C  0.50818686  0.44826361  0.25911482    -0.13700
C460        C  0.53675032  0.47127974  0.24885582     0.16700
C461        C  0.55402698  0.49574930  0.27547153     0.03000
C462        C  0.54253854  0.49706418  0.31055351    -0.12200
C463        C  0.51385674  0.47427268  0.32054202    -0.03300
C464        C  0.49662195  0.44939564  0.29480850     0.02200
C465        C  0.54735564  0.47018084  0.20647144     0.09100
N466        N  0.58341519  0.51940565  0.26805764     0.65400
H467        H  0.55641378  0.51628071  0.33001792     0.18300
N468        N  0.46741923  0.42511929  0.30381182     0.75900
H469        H  0.49460655  0.42948081  0.23829240     0.09800
C470        C  0.54355248  0.45006511  0.20319917     0.03500
C471        C  0.55072366  0.44754003  0.15981099    -0.05200
C472        C  0.56129168  0.46452771  0.11903498    -0.23600
C473        C  0.56561800  0.48501320  0.12264551     0.12800
C474        C  0.55874831  0.48773824  0.16621983    -0.12700
N475        N  0.53222035  0.43189301  0.24343466     0.64500
H476        H  0.54719149  0.43167109  0.15747009     0.12300
N477        N  0.57735984  0.50350802  0.08276473     0.61100
H478        H  0.56147982  0.50304854  0.16802250     0.08500
O479        O  0.45092184  0.41909597  0.27470462    -0.40400
O480        O  0.45830211  0.40657910  0.33129968    -0.39500
O481        O  0.59449656  0.54067676  0.24857768    -0.39500
O482        O  0.59835028  0.52158608  0.29266209    -0.37200
O483        O  0.56186791  0.50026767  0.05712466    -0.38100
O484        O  0.60332361  0.52626794  0.08115416    -0.34300
O485        O  0.50775568  0.40692965  0.24050872    -0.35700
O486        O  0.54833893  0.43909058  0.27591940    -0.40000
C487        C  0.49049207  0.41863805  0.68412213    -0.13700
C488        C  0.50868513  0.43275417  0.64380062     0.16700
C489        C  0.53158575  0.44022610  0.64469975     0.03000
C490        C  0.53630830  0.43416863  0.68617892    -0.12200
C491        C  0.51875822  0.42107491  0.72741147    -0.03300
C492        C  0.49527314  0.41270473  0.72569605     0.02200
C493        C  0.50515674  0.44220822  0.60409456     0.09100
N494        N  0.55062560  0.45454640  0.60431647     0.65400
H495        H  0.55445610  0.44083727  0.68691533     0.18300
N496        N  0.47585367  0.39791504  0.76551234     0.75900
H497        H  0.47309586  0.41313319  0.68421557     0.09800
C498        C  0.48047143  0.42370972  0.57646494     0.03500
C499        C  0.47757712  0.43379987  0.54128597    -0.05200
C500        C  0.49872614  0.46225064  0.53326989    -0.23600
C501        C  0.52312371  0.48077057  0.56222303     0.12800
C502        C  0.52610510  0.47058669  0.59693869    -0.12700
N503        N  0.45818837  0.39459470  0.58319467     0.64500
H504        H  0.45857512  0.41909519  0.52002634     0.12300
N505        N  0.54471449  0.50992200  0.55837532     0.61100
H506        H  0.54460647  0.48500577  0.61956285     0.08500
O507        O  0.47639790  0.41043692  0.79437368    -0.40400
O508        O  0.45419189  0.37197934  0.76343285    -0.39500
O509        O  0.57365950  0.48021544  0.60730789    -0.39500
O510        O  0.54754105  0.44103991  0.57236895    -0.37200
O511        O  0.54405815  0.52178179  0.58608344    -0.38100
O512        O  0.56717735  0.52406139  0.53723059    -0.34300
O513        O  0.43755332  0.38231183  0.60902355    -0.35700
O514        O  0.45562993  0.38084132  0.55331512    -0.40000
C515        C  0.46781856  0.52272841  0.59709805    -0.13700
C516        C  0.43982525  0.50509358  0.59635417     0.16700
C517        C  0.42206936  0.48445954  0.56025257     0.03000
C518        C  0.43250970  0.48175133  0.52543408    -0.12200
C519        C  0.46062011  0.49944259  0.52576145    -0.03300
C520        C  0.47836878  0.52012399  0.56231013     0.02200
C521        C  0.42993365  0.50886335  0.63399096     0.09100
N522        N  0.39349918  0.46633600  0.55800260     0.65400
H523        H  0.41852950  0.46581338  0.49779048     0.18300
N524        N  0.50681274  0.53793017  0.56606341     0.75900
H525        H  0.48151350  0.53850384  0.62511524     0.09800
C526        C  0.41944856  0.49487686  0.67927447     0.03500
C527        C  0.41510520  0.50245840  0.71773155    -0.05200
C528        C  0.42141733  0.52423216  0.71239383    -0.23600
C529        C  0.43026051  0.53706298  0.66577324     0.12800
C530        C  0.43457937  0.52936956  0.62712454    -0.12700
N531        N  0.41473777  0.47407594  0.68788538     0.64500
H532        H  0.40757049  0.49173595  0.75248080     0.12300
N533        N  0.43666582  0.55902769  0.65761917     0.61100
H534        H  0.44278864  0.54028533  0.59238901     0.08500
O535        O  0.51372989  0.53306086  0.59830447    -0.40400
O536        O  0.52534020  0.56133245  0.54578672    -0.39500
O537        O  0.38589161  0.47063540  0.52621941    -0.39500
O538        O  0.37548023  0.44305118  0.57856294    -0.37200
O539        O  0.46130821  0.58356567  0.66339248    -0.38100
O540        O  0.41987089  0.55437890  0.63344254    -0.34300
O541        O  0.43180709  0.47970100  0.71375988    -0.35700
O542        O  0.39092316  0.44919657  0.68014160    -0.40000
C543        C  0.48956447  0.53914341  0.24189932    -0.13700
C544        C  0.46286214  0.52452749  0.23716672     0.16700
C545        C  0.44169961  0.50256682  0.26961411     0.03000
C546        C  0.44745227  0.49554355  0.30616397    -0.12200
C547        C  0.47414191  0.51007345  0.31103722    -0.03300
C548        C  0.49531297  0.53197775  0.27822022     0.02200
C549        C  0.45671978  0.53020457  0.19427301     0.09100
N550        N  0.41426077  0.48725956  0.26606371     0.65400
H551        H  0.43101245  0.47879810  0.33106119     0.18300
N552        N  0.52205243  0.54569165  0.27861368     0.75900
H553        H  0.50565040  0.55537118  0.21597888     0.09800
C554        C  0.46812025  0.55507581  0.18944434     0.03500
C555        C  0.46324779  0.56032469  0.14655963    -0.05200
C556        C  0.44728674  0.54119388  0.10777396    -0.23600
C557        C  0.43588470  0.51621091  0.11287665     0.12800
C558        C  0.44065128  0.51098334  0.15594260    -0.12700
N559        N  0.48432579  0.57501210  0.22806456     0.64500
H560        H  0.47228260  0.57961290  0.14344573     0.12300
N561        N  0.41861005  0.49541274  0.07574192     0.61100
H562        H  0.43199151  0.49189341  0.15927428     0.08500
O563        O  0.52625009  0.53664835  0.25190219    -0.40400
O564        O  0.54255198  0.56970780  0.29598577    -0.39500
O565        O  0.39470544  0.46264251  0.25132323    -0.39500
O566        O  0.40863644  0.49604312  0.28761647    -0.37200
O567        O  0.42869709  0.49275656  0.04738930    -0.38100
O568        O  0.39257436  0.47565417  0.08027874    -0.34300
O569        O  0.51028722  0.59697391  0.22282783    -0.35700
O570        O  0.47233323  0.57347497  0.26160091    -0.40000
loop_ 
_geom_bond_atom_site_label_1 
_geom_bond_atom_site_label_2 
_geom_bond_distance 
_geom_bond_site_symmetry_2 
_ccdc_geom_bond_type 
O1           Cu9   2.008       .  S
O1           C11   1.279       .  A
O2           Cu9   2.017       .  S
O2           C12   1.277       .  A
O3           Cu9   1.998       .  S
O3           C13   1.278       .  A
O4           Cu9   2.001       .  S
O4           C14   1.278       .  A
O5          Cu10   2.014       .  S
O5           C14   1.278       .  A
O6          Cu10   2.008       .  S
O6           C13   1.277       .  A
O7          Cu10   1.995       .  S
O7           C12   1.279       .  A
O8          Cu10   2.008       .  S
O8           C11   1.277       .  A
Cu9         Cu10   2.369       .  S
C11         C519   1.483       .  S
C12         C463   1.487       .  S
C13         C500   1.485       .  S
C14         C547   1.479       .  S
N15          N16   1.320       .  A
N15          C19   1.342       .  A
N15         Cu23   2.060       .  S
N16          C17   1.346       .  A
N16         Cu22   2.073       .  S
C17          C18   1.387       .  A
C17          H20   1.080       .  S
C18         C435   1.481       .  S
C18          C19   1.384       .  A
C19          H21   1.081       .  S
Cu22         N25   2.073       .  S
Cu23         N33   2.059   1_554  S
Cu24         N26   2.082       .  S
Cu24         N32   2.082       .  S
N25          N26   1.324   1_554  A
N25          C29   1.343       .  A
N26          C27   1.347       .  A
C27          C28   1.383   1_556  A
C27          H30   1.082       .  S
C28          C83   1.468       .  S
C28          C29   1.380       .  A
C29          H31   1.082       .  S
N32          N33   1.321       .  A
N32          C36   1.346       .  A
N33          C34   1.342       .  A
C34          C35   1.383       .  A
C34          H37   1.080       .  S
C35         C416   1.481       .  S
C35          C36   1.389       .  A
C36          H38   1.083       .  S
N39          N40   1.321       .  A
N39          C43   1.341       .  A
N39         Cu47   2.059       .  S
N40          C41   1.347       .  A
N40         Cu46   2.081       .  S
C41          C42   1.388       .  A
C41          H44   1.081       .  S
C42         C491   1.478       .  S
C42          C43   1.381       .  A
C43          H45   1.080       .  S
Cu46         N49   2.081       .  S
Cu47         N57   2.059       .  S
Cu48         N50   2.082       .  S
Cu48         N56   2.081   1_556  S
N49          N50   1.325       .  A
N49          C53   1.347       .  A
N50          C51   1.345       .  A
C51          C52   1.380       .  A
C51          H54   1.081       .  S
C52          C66   1.466       .  S
C52          C53   1.381       .  A
C53          H55   1.082       .  S
N56          N57   1.321   1_554  A
N56          C60   1.346       .  A
N57          C58   1.343   1_556  A
C58          C59   1.382       .  A
C58          H61   1.082       .  S
C59         C472   1.476       .  S
C59          C60   1.386       .  A
C60          H62   1.084       .  S
N63          N64   1.323       .  A
N63          C67   1.344       .  A
N63         Cu71   2.070       .  S
N64          C65   1.347       .  A
N64         Cu70   2.085       .  S
C65          C66   1.384       .  A
C65          H68   1.082       .  S
C66          C67   1.380       .  A
C67          H69   1.082       .  S
Cu70         N73   2.086   1_556  S
Cu71         N81   2.069   1_556  S
Cu72         N74   2.067       .  S
Cu72         N80   2.067       .  S
N73          N74   1.323       .  A
N73          C77   1.347       .  A
N74          C75   1.344       .  A
C75          C76   1.380       .  A
C75          H78   1.082       .  S
C76         C100   1.471       .  S
C76          C77   1.386       .  A
C77          H79   1.081   1_554  S
N80          N81   1.321       .  A
N80          C84   1.343       .  A
N81          C82   1.346   1_554  A
C82          C83   1.383   1_556  A
C82          H85   1.082       .  S
C83          C84   1.381       .  A
C84          H86   1.082       .  S
N87          N88   1.318       .  A
N87          C91   1.339       .  A
N87         Cu95   2.070   1_556  S
N88          C89   1.350       .  A
N88         Cu94   2.072       .  S
C89          C90   1.391       .  A
C89          H92   1.080       .  S
C90         C351   1.489       .  S
C90          C91   1.387       .  A
C91          H93   1.082       .  S
Cu94         N97   2.074   1_556  S
Cu95        N105   2.071       .  S
Cu96         N98   2.100       .  S
Cu96        N104   2.098       .  S
N97          N98   1.326       .  A
N97         C101   1.344       .  A
N98          C99   1.348       .  A
C99         C100   1.385       .  A
C99         H102   1.082       .  S
C100        C101   1.379       .  A
C101        H103   1.082   1_554  S
N104        N105   1.320       .  A
N104        C108   1.354       .  A
N105        C106   1.340       .  A
C106        C107   1.387       .  A
C106        H109   1.081       .  S
C107        C379   1.498       .  S
C107        C108   1.397       .  A
C108        H110   1.080       .  S
O111       Cu119   2.018       .  S
O111        C121   1.281       .  A
O112       Cu119   2.017       .  S
O112        C122   1.278       .  A
O113       Cu119   2.002       .  S
O113        C123   1.278   1_545  A
O114       Cu119   2.021       .  S
O114        C124   1.278       .  A
O115       Cu120   2.008       .  S
O115        C124   1.280       .  A
O116       Cu120   2.002   1_565  S
O116        C123   1.276       .  A
O117       Cu120   2.008   1_565  S
O117        C122   1.279   1_565  A
O118       Cu120   2.032       .  S
O118        C121   1.279       .  A
Cu119      Cu120   2.367       .  S
C121        C388   1.496       .  S
C122        C323   1.490   1_545  S
C123        C295   1.470       .  S
C124        C360   1.492       .  S
O125       Cu133   2.018       .  S
O125        C135   1.278       .  A
O126       Cu133   2.001       .  S
O126        C136   1.278       .  A
O127       Cu133   2.010       .  S
O127        C137   1.277       .  A
O128       Cu133   2.014       .  S
O128        C138   1.280   1_455  A
O129       Cu134   2.005   1_655  S
O129        C138   1.276       .  A
O130       Cu134   2.002       .  S
O130        C137   1.279       .  A
O131       Cu134   2.002       .  S
O131        C136   1.276       .  A
O132       Cu134   2.007   1_655  S
O132        C135   1.279   1_655  A
Cu133      Cu134   2.371       .  S
C135        C444   1.485   1_455  S
C136        C248   1.475       .  S
C137        C267   1.478       .  S
C138        C407   1.483       .  S
N139        N140   1.321       .  A
N139        C143   1.337       .  A
N139       Cu147   2.055       .  S
N140        C141   1.353       .  A
N140       Cu146   2.094       .  S
C141        C142   1.394       .  A
C141        H144   1.080       .  S
C142        C528   1.488       .  S
C142        C143   1.382       .  A
C143        H145   1.083       .  S
Cu146       N149   2.096       .  S
Cu147       N157   2.055       .  S
Cu148       N150   2.081       .  S
Cu148       N156   2.079   1_556  S
N149        N150   1.326       .  A
N149        C153   1.349       .  A
N150        C151   1.345       .  A
C151        C152   1.379       .  A
C151        H154   1.083   1_556  S
C152        C166   1.470       .  S
C152        C153   1.384       .  A
C153        H155   1.082       .  S
N156        N157   1.318   1_554  A
N156        C160   1.346       .  A
N157        C158   1.343   1_556  A
C158        C159   1.385       .  A
C158        H161   1.077       .  S
C159        C556   1.485       .  S
C159        C160   1.390       .  A
C160        H162   1.080       .  S
N163        N164   1.323       .  A
N163        C167   1.347       .  A
N163       Cu171   2.079       .  S
N164        C165   1.347       .  A
N164       Cu170   2.086       .  S
C165        C166   1.384       .  A
C165        H168   1.082       .  S
C166        C167   1.382       .  A
C167        H169   1.082       .  S
Cu170       N173   2.086   1_556  S
Cu171       N181   2.080   1_556  S
Cu172       N174   2.072       .  S
Cu172       N180   2.072       .  S
N173        N174   1.323       .  A
N173        C177   1.348       .  A
N174        C175   1.345       .  A
C175        C176   1.381       .  A
C175        H178   1.083       .  S
C176        C224   1.473       .  S
C176        C177   1.386       .  A
C177        H179   1.082       .  S
N180        N181   1.323       .  A
N180        C184   1.345       .  A
N181        C182   1.346   1_554  A
C182        C183   1.384   1_556  A
C182        H185   1.082       .  S
C183        C200   1.469       .  S
C183        C184   1.381       .  A
C184        H186   1.082       .  S
N187        N188   1.321       .  A
N187        C191   1.342       .  A
N187       Cu195   2.073       .  S
N188        C189   1.348       .  A
N188       Cu194   2.082       .  S
C189        C190   1.389       .  A
C189        H192   1.079       .  S
C190        C276   1.486       .  S
C190        C191   1.386       .  A
C191        H193   1.083       .  S
Cu194       N197   2.083       .  S
Cu195       N205   2.073   1_554  S
Cu196       N198   2.070   1_556  S
Cu196       N204   2.069       .  S
N197        N198   1.324       .  A
N197        C201   1.346       .  A
N198        C199   1.344   1_554  A
C199        C200   1.380   1_556  A
C199        H202   1.083       .  S
C200        C201   1.383       .  A
C201        H203   1.083       .  S
N204        N205   1.321       .  A
N204        C208   1.347       .  A
N205        C206   1.341       .  A
C206        C207   1.386       .  A
C206        H209   1.083       .  S
C207        C239   1.480       .  S
C207        C208   1.385       .  A
C208        H210   1.082       .  S
N211        N212   1.318       .  A
N211        C215   1.337       .  A
N211       Cu219   2.035   1_556  S
N212        C213   1.349       .  A
N212       Cu218   2.097       .  S
C213        C214   1.397       .  A
C213        H216   1.081       .  S
C214        C332   1.490       .  S
C214        C215   1.380       .  A
C215        H217   1.085       .  S
Cu218       N221   2.099   1_556  S
Cu219       N229   2.035       .  S
Cu220       N222   2.086       .  S
Cu220       N228   2.084       .  S
N221        N222   1.327       .  A
N221        C225   1.349       .  A
N222        C223   1.346       .  A
C223        C224   1.381       .  A
C223        H226   1.083       .  S
C224        C225   1.384       .  A
C225        H227   1.082   1_554  S
N228        N229   1.319       .  A
N228        C232   1.347       .  A
N229        C230   1.338       .  A
C230        C231   1.378       .  A
C230        H233   1.081       .  S
C231        C304   1.476       .  S
C231        C232   1.390       .  A
C232        H234   1.082       .  S
C235        C236   1.402       .  A
C235        C240   1.404       .  A
C235        H245   1.082       .  S
C236        C241   1.473       .  S
C236        C237   1.406       .  A
C237        C238   1.393       .  A
C237        N242   1.429       .  S
C238        C239   1.403       .  A
C238        H243   1.081       .  S
C239        C240   1.414       .  A
C240        N244   1.428       .  S
C241        C246   1.406       .  A
C241        C250   1.401       .  A
N242        O257   1.262       .  A
N242        O258   1.262       .  A
N244        O255   1.262       .  A
N244        O256   1.262       .  A
C246        C247   1.398       .  A
C246        N251   1.428       .  S
C247        C248   1.405       .  A
C247        H252   1.082       .  S
C248        C249   1.412       .  A
C249        C250   1.397       .  A
C249        N253   1.428       .  S
C250        H254   1.082       .  S
N251        O261   1.262       .  A
N251        O262   1.262       .  A
N253        O259   1.262       .  A
N253        O260   1.261       .  A
C263        C264   1.403       .  A
C263        C268   1.402       .  A
C263        H273   1.084       .  S
C264        C269   1.479       .  S
C264        C265   1.408       .  A
C265        C266   1.396       .  A
C265        N270   1.428       .  S
C266        C267   1.403       .  A
C266        H271   1.084       .  S
C267        C268   1.413       .  A
C268        N272   1.429       .  S
C269        C274   1.408       .  A
C269        C278   1.401       .  A
N270        O285   1.262       .  A
N270        O286   1.261       .  A
N272        O283   1.262       .  A
N272        O284   1.262       .  A
C274        C275   1.399       .  A
C274        N279   1.430       .  S
C275        C276   1.406       .  A
C275        H280   1.081       .  S
C276        C277   1.414       .  A
C277        C278   1.402       .  A
C277        N281   1.428       .  S
C278        H282   1.082       .  S
N279        O289   1.262       .  A
N279        O290   1.262       .  A
N281        O287   1.262       .  A
N281        O288   1.262       .  A
C291        C292   1.403       .  A
C291        C296   1.401       .  A
C291        H301   1.082       .  S
C292        C297   1.476       .  S
C292        C293   1.409       .  A
C293        C294   1.394       .  A
C293        N298   1.429   1_565  S
C294        C295   1.399       .  A
C294        H299   1.082   1_565  S
C295        C296   1.412       .  A
C296        N300   1.429       .  S
C297        C302   1.409       .  A
C297        C306   1.400       .  A
N298        O313   1.262       .  A
N298        O314   1.262       .  A
N300        O311   1.262       .  A
N300        O312   1.262       .  A
C302        C303   1.400       .  A
C302        N307   1.428       .  S
C303        C304   1.403       .  A
C303        H308   1.081       .  S
C304        C305   1.414       .  A
C305        C306   1.396       .  A
C305        N309   1.430       .  S
C306        H310   1.082       .  S
N307        O317   1.262       .  A
N307        O318   1.262       .  A
N309        O315   1.262       .  A
N309        O316   1.262       .  A
C319        C320   1.402       .  A
C319        C324   1.400       .  A
C319        H329   1.084       .  S
C320        C325   1.483       .  S
C320        C321   1.409       .  A
C321        C322   1.400       .  A
C321        N326   1.428       .  S
C322        C323   1.408       .  A
C322        H327   1.083       .  S
C323        C324   1.416       .  A
C324        N328   1.429   1_565  S
C325        C330   1.409       .  A
C325        C334   1.400       .  A
N326        O341   1.262       .  A
N326        O342   1.262       .  A
N328        O339   1.262       .  A
N328        O340   1.262       .  A
C330        C331   1.402       .  A
C330        N335   1.428       .  S
C331        C332   1.406       .  A
C331        H336   1.081       .  S
C332        C333   1.418       .  A
C333        C334   1.398       .  A
C333        N337   1.429       .  S
C334        H338   1.083       .  S
N335        O345   1.262       .  A
N335        O346   1.262       .  A
N337        O343   1.262       .  A
N337        O344   1.262       .  A
C347        C348   1.404       .  A
C347        C352   1.405       .  A
C347        H357   1.082       .  S
C348        C353   1.484       .  S
C348        C349   1.407       .  A
C349        C350   1.396       .  A
C349        N354   1.429       .  S
C350        C351   1.406       .  A
C350        H355   1.081       .  S
C351        C352   1.415       .  A
C352        N356   1.428       .  S
C353        C358   1.407       .  A
C353        C362   1.403       .  A
N354        O369   1.262       .  A
N354        O370   1.262       .  A
N356        O367   1.262       .  A
N356        O368   1.262       .  A
C358        C359   1.397       .  A
C358        N363   1.428       .  S
C359        C360   1.407       .  A
C359        H364   1.082       .  S
C360        C361   1.418       .  A
C361        C362   1.404       .  A
C361        N365   1.429       .  S
C362        H366   1.082       .  S
N363        O373   1.262       .  A
N363        O374   1.262       .  A
N365        O371   1.262       .  A
N365        O372   1.262       .  A
C375        C376   1.405       .  A
C375        C380   1.409       .  A
C375        H385   1.081       .  S
C376        C381   1.489       .  S
C376        C377   1.406       .  A
C377        C378   1.400       .  A
C377        N382   1.429       .  S
C378        C379   1.409       .  A
C378        H383   1.080       .  S
C379        C380   1.417       .  A
C380        N384   1.428       .  S
C381        C386   1.406       .  A
C381        C390   1.404       .  A
N382        O397   1.262       .  A
N382        O398   1.262       .  A
N384        O395   1.262       .  A
N384        O396   1.262       .  A
C386        C387   1.401       .  A
C386        N391   1.427       .  S
C387        C388   1.407       .  A
C387        H392   1.082       .  S
C388        C389   1.419       .  A
C389        C390   1.408       .  A
C389        N393   1.429       .  S
C390        H394   1.083       .  S
N391        O401   1.262       .  A
N391        O402   1.262       .  A
N393        O399   1.262       .  A
N393        O400   1.262       .  A
C403        C404   1.401       .  A
C403        C408   1.400       .  A
C403        H413   1.083       .  S
C404        C409   1.482       .  S
C404        C405   1.410       .  A
C405        C406   1.398       .  A
C405        N410   1.429       .  S
C406        C407   1.404       .  A
C406        H411   1.083   1_655  S
C407        C408   1.415       .  A
C408        N412   1.428       .  S
C409        C414   1.411       .  A
C409        C418   1.401       .  A
N410        O425   1.262   1_655  A
N410        O426   1.262       .  A
N412        O423   1.262       .  A
N412        O424   1.262       .  A
C414        C415   1.400       .  A
C414        N419   1.429       .  S
C415        C416   1.404       .  A
C415        H420   1.082       .  S
C416        C417   1.413       .  A
C417        C418   1.398       .  A
C417        N421   1.429       .  S
C418        H422   1.082       .  S
N419        O429   1.262       .  A
N419        O430   1.262       .  A
N421        O427   1.262       .  A
N421        O428   1.262       .  A
C431        C432   1.401       .  A
C431        C436   1.398       .  A
C431        H441   1.083       .  S
C432        C437   1.480       .  S
C432        C433   1.409       .  A
C433        C434   1.402       .  A
C433        N438   1.428       .  S
C434        C435   1.404       .  A
C434        H439   1.083       .  S
C435        C436   1.413       .  A
C436        N440   1.429       .  S
C437        C442   1.408       .  A
C437        C446   1.402       .  A
N438        O453   1.262       .  A
N438        O454   1.262       .  A
N440        O451   1.262       .  A
N440        O452   1.262       .  A
C442        C443   1.399       .  A
C442        N447   1.428       .  S
C443        C444   1.406       .  A
C443        H448   1.083       .  S
C444        C445   1.415   1_655  A
C445        C446   1.401   1_455  A
C445        N449   1.429       .  S
C446        H450   1.084       .  S
N447        O457   1.262       .  A
N447        O458   1.261       .  A
N449        O455   1.262       .  A
N449        O456   1.262       .  A
C459        C460   1.403       .  A
C459        C464   1.402       .  A
C459        H469   1.082       .  S
C460        C465   1.481       .  S
C460        C461   1.407       .  A
C461        C462   1.395       .  A
C461        N466   1.429       .  S
C462        C463   1.407       .  A
C462        H467   1.082       .  S
C463        C464   1.417       .  A
C464        N468   1.429       .  S
C465        C470   1.410       .  A
C465        C474   1.403       .  A
N466        O481   1.262       .  A
N466        O482   1.262       .  A
N468        O479   1.262       .  A
N468        O480   1.262       .  A
C470        C471   1.400       .  A
C470        N475   1.429       .  S
C471        C472   1.402       .  A
C471        H476   1.082       .  S
C472        C473   1.411       .  A
C473        C474   1.399       .  A
C473        N477   1.429       .  S
C474        H478   1.082       .  S
N475        O485   1.262       .  A
N475        O486   1.262       .  A
N477        O483   1.262       .  A
N477        O484   1.262       .  A
C487        C488   1.401       .  A
C487        C492   1.398       .  A
C487        H497   1.081       .  S
C488        C493   1.479       .  S
C488        C489   1.411       .  A
C489        C490   1.399       .  A
C489        N494   1.429       .  S
C490        C491   1.403       .  A
C490        H495   1.081       .  S
C491        C492   1.412       .  A
C492        N496   1.429       .  S
C493        C498   1.409       .  A
C493        C502   1.401       .  A
N494        O509   1.262       .  A
N494        O510   1.262       .  A
N496        O507   1.262       .  A
N496        O508   1.262       .  A
C498        C499   1.397       .  A
C498        N503   1.429       .  S
C499        C500   1.407       .  A
C499        H504   1.082       .  S
C500        C501   1.416       .  A
C501        C502   1.399       .  A
C501        N505   1.429       .  S
C502        H506   1.083       .  S
N503        O513   1.262       .  A
N503        O514   1.262       .  A
N505        O511   1.262       .  A
N505        O512   1.262       .  A
C515        C516   1.401       .  A
C515        C520   1.400       .  A
C515        H525   1.083       .  S
C516        C521   1.476       .  S
C516        C517   1.405       .  A
C517        C518   1.400       .  A
C517        N522   1.428       .  S
C518        C519   1.407       .  A
C518        H523   1.082       .  S
C519        C520   1.415       .  A
C520        N524   1.429       .  S
C521        C526   1.404       .  A
C521        C530   1.402       .  A
N522        O537   1.262       .  A
N522        O538   1.261       .  A
N524        O535   1.262       .  A
N524        O536   1.262       .  A
C526        C527   1.396       .  A
C526        N531   1.429       .  S
C527        C528   1.408       .  A
C527        H532   1.080       .  S
C528        C529   1.414       .  A
C529        C530   1.405       .  A
C529        N533   1.428       .  S
C530        H534   1.081       .  S
N531        O541   1.262       .  A
N531        O542   1.261       .  A
N533        O539   1.262       .  A
N533        O540   1.262       .  A
C543        C544   1.402       .  A
C543        C548   1.402       .  A
C543        H553   1.081       .  S
C544        C549   1.478       .  S
C544        C545   1.408       .  A
C545        C546   1.398       .  A
C545        N550   1.429       .  S
C546        C547   1.404       .  A
C546        H551   1.081       .  S
C547        C548   1.413       .  A
C548        N552   1.429       .  S
C549        C554   1.407       .  A
C549        C558   1.400       .  A
N550        O565   1.262       .  A
N550        O566   1.262       .  A
N552        O563   1.262       .  A
N552        O564   1.261       .  A
C554        C555   1.401       .  A
C554        N559   1.428       .  S
C555        C556   1.406       .  A
C555        H560   1.082       .  S
C556        C557   1.416       .  A
C557        C558   1.399       .  A
C557        N561   1.429       .  S
C558        H562   1.083       .  S
N559        O569   1.262       .  A
N559        O570   1.262       .  A
N561        O567   1.262       .  A
N561        O568   1.262       .  A
