geometry optimzed in LAMMPS
_audit_creation_date              2020-12-01 
_audit_creation_method            'lammps2cif' 
_symmetry_space_group_name_H-M    'P1' 
_symmetry_Int_Tables_number       1 
_symmetry_cell_setting            triclinic 
loop_ 
_symmetry_equiv_pos_as_xyz 
  x,y,z 
_cell_length_a                    25.96273766 
_cell_length_b                    42.10726584149784 
_cell_length_c                    49.004745200811804 
_cell_angle_alpha                 90.00893572115639 
_cell_angle_beta                  89.79403155179718 
_cell_angle_gamma                 89.76832204647363 
loop_ 
_atom_site_label 
_atom_site_type_symbol 
_atom_site_fract_x 
_atom_site_fract_y 
_atom_site_fract_z 
_atom_site_charge 
N1          N  0.00200860  0.50167090  0.45668643    -0.36800
N2          N  0.00865475  0.54975176  0.99939402    -0.57400
N3          N  0.00567927  0.49897073  0.03969355    -0.36800
N4          N  0.00607594  0.45092094  0.99682550    -0.57400
C5          C  0.00926971  0.52835733  0.44180229     0.26700
C6          C  0.01459135  0.47668359  0.44052521     0.26700
C7          C  0.01841584  0.52384507  0.05583150     0.26700
C8          C  0.01176706  0.47221568  0.05465890     0.26700
C9          C  0.99662583  0.56892366  0.47818281     0.35400
C10         C  0.00466036  0.56762480  0.02227191     0.35400
C11         C  0.00043062  0.43304686  0.47408867     0.35400
C12         C  0.99573472  0.43185620  0.01835137     0.35400
C13         C  0.02657612  0.52031334  0.41591356    -0.22100
C14         C  0.03039434  0.48778415  0.41517578    -0.22100
C15         C  0.03263526  0.51268291  0.08135849    -0.22100
C16         C  0.02808634  0.48022311  0.08068761    -0.22100
C17         C  0.98575859  0.59927844  0.48759743    -0.23200
C18         C  0.99129670  0.59851713  0.01551509    -0.23200
C19         C  0.98732466  0.40225903  0.48120697    -0.23200
C20         C  0.98421350  0.40152598  0.00926252    -0.23200
C21         C  0.99805035  0.55973376  0.45037804    -0.18500
C22         C  0.00824813  0.44410475  0.44709064    -0.18500
C23         C  0.00017591  0.44091021  0.04608238    -0.18500
C24         C  0.01339954  0.55646136  0.04913005    -0.18500
H25         H  0.03548941  0.53625870  0.39924614     0.14400
H26         H  0.04258499  0.47386775  0.39772176     0.14400
H27         H  0.04405149  0.52653509  0.09891654     0.14400
H28         H  0.03557772  0.46440272  0.09761864     0.14400
H29         H  0.97527878  0.61988735  0.47561993     0.12700
H30         H  0.98549677  0.61831861  0.02928604     0.12700
H31         H  0.98060146  0.38243927  0.46763188     0.12700
H32         H  0.97516153  0.38093177  0.02156717     0.12700
H33         H  0.98317005  0.50061325  0.47540759     0.25900
H34         H  0.98776941  0.50028273  0.02082142     0.25900
O35         O  0.96556840  0.28735055  0.27700297    -0.82000
C36         C  0.04379159  0.20589985  0.19967038     0.97300
O37         O  0.07050334  0.22813355  0.21024817    -0.71100
O38         O  0.02709279  0.28337257  0.21464650    -0.74700
Al39       Al  0.05564038  0.25663412  0.24083919     1.49000
C40         C  0.98298940  0.29280433  0.20811318     0.92600
O41         O  0.89466831  0.23170771  0.23094020    -0.81000
O42         O  0.98437135  0.19641235  0.28731541    -0.74500
Al43       Al  0.93684192  0.25766796  0.25363665     1.90100
O44         O  0.92572639  0.18653234  0.24394354    -0.73600
O45         O  0.06657820  0.18705467  0.25659576    -0.73400
O46         O  0.00778629  0.19216718  0.21247031    -0.79100
O47         O  0.09742081  0.23335681  0.26591578    -0.77300
O48         O  0.99620347  0.23679375  0.24811847    -1.13400
O49         O  0.04867573  0.28780137  0.26983006    -0.72600
C50         C  0.00943596  0.29761641  0.28277043     0.98100
C51         C  0.88941671  0.20239752  0.23426587     0.94500
Al52       Al  0.99620009  0.19464953  0.24987656     1.55600
O53         O  0.94394869  0.28514259  0.22213846    -0.77200
C54         C  0.10230824  0.20376006  0.26562935     0.98700
C55         C  0.94713884  0.21091524  0.29858226     0.93500
O56         O  0.92164366  0.23277516  0.28647506    -0.82600
N57         N  0.57512563  0.99917980  0.26195849    -0.36800
N58         N  0.49614842  0.94978836  0.26082040    -0.57400
N59         N  0.41718156  0.99870003  0.26060405    -0.36800
N60         N  0.49636348  0.04796241  0.25862733    -0.57400
C61         C  0.60435143  0.97274933  0.25897188     0.26700
C62         C  0.60428619  0.02429300  0.25418756     0.26700
C63         C  0.38803246  0.97314437  0.25405270     0.26700
C64         C  0.38767972  0.02498288  0.25736622     0.26700
C65         C  0.53733100  0.93128044  0.26659752     0.35400
C66         C  0.45422721  0.93084317  0.26186303     0.35400
C67         C  0.53831703  0.06679846  0.26042975     0.35400
C68         C  0.45503194  0.06664553  0.26378500     0.35400
C69         C  0.65291826  0.98113972  0.24965040    -0.22100
C70         C  0.65287376  0.01357041  0.24659569    -0.22100
C71         C  0.33900086  0.98348253  0.24699768    -0.22100
C72         C  0.33874172  0.01608142  0.24920883    -0.22100
C73         C  0.52149806  0.90036180  0.27138953    -0.23200
C74         C  0.46905463  0.89996357  0.26790046    -0.23200
C75         C  0.52349578  0.09773340  0.26614878    -0.23200
C76         C  0.47088593  0.09754380  0.26872567    -0.23200
C77         C  0.58928272  0.94127770  0.26526270    -0.18500
C78         C  0.58949282  0.05675254  0.25541275    -0.18500
C79         C  0.40302509  0.05675260  0.26245292    -0.18500
C80         C  0.40327785  0.94069403  0.25580394    -0.18500
H81         H  0.68511357  0.96547880  0.24538120     0.14400
H82         H  0.68537234  0.02759081  0.23990776     0.14400
H83         H  0.30632506  0.96907863  0.24132755     0.14400
H84         H  0.30618740  0.03149850  0.24518195     0.14400
H85         H  0.54528026  0.87994705  0.27611599     0.12700
H86         H  0.44489376  0.87918690  0.26954592     0.12700
H87         H  0.54785134  0.11834762  0.26834230     0.12700
H88         H  0.44710647  0.11803753  0.27328286     0.12700
H89         H  0.53949760  0.00009820  0.27165279     0.25900
H90         H  0.45337707  0.99833634  0.26950013     0.25900
O91         O  0.96817482  0.71578314  0.21775974    -0.82000
C92         C  0.05012361  0.79120613  0.29904507     0.97300
O93         O  0.07532418  0.76832206  0.28828247    -0.71100
O94         O  0.02527927  0.71565358  0.28403666    -0.74700
Al95       Al  0.05816026  0.74056122  0.25770454     1.49000
C96         C  0.98008234  0.70663416  0.28845712     0.92600
O97         O  0.90091313  0.77030166  0.26707022    -0.81000
O98         O  0.99387437  0.80504526  0.21100556    -0.74500
Al99       Al  0.94050806  0.74444587  0.24270122     1.90100
O100        O  0.93476625  0.81499295  0.25496469    -0.73600
O101        O  0.07542042  0.80963253  0.24229429    -0.73400
O102        O  0.01530485  0.80609773  0.28629625    -0.79100
O103        O  0.10340529  0.76230673  0.23298966    -0.77300
O104        O  0.00116600  0.76283907  0.24962417    -1.13400
O105        O  0.04918311  0.70935445  0.22874503    -0.72600
C106        C  0.01112195  0.70288822  0.21359963     0.98100
C107        C  0.89817757  0.79996548  0.26532675     0.94500
Al108      Al  0.00460824  0.80494856  0.24870762     1.55600
O109        O  0.94386989  0.71444265  0.27260871    -0.77200
C110        C  0.11045611  0.79179756  0.23373358     0.98700
C111        C  0.95557125  0.79269325  0.19924099     0.93500
O112        O  0.92746680  0.77188900  0.21098905    -0.82600
N113        N  0.99773699  0.00045834  0.45503207    -0.36800
N114        N  0.00691575  0.95235279  0.99804208    -0.57400
N115        N  0.00025995  0.00150750  0.03901314    -0.36800
N116        N  0.00129935  0.04984313  0.99599652    -0.57400
C117        C  0.01060637  0.97507908  0.43951596     0.26700
C118        C  0.99654434  0.02621476  0.43859317     0.26700
C119        C  0.00342398  0.97568543  0.05536627     0.26700
C120        C  0.01221365  0.02729088  0.05415914     0.26700
C121        C  0.00728276  0.93323804  0.47591597     0.35400
C122        C  0.99680858  0.93358456  0.01976792     0.35400
C123        C  0.98958322  0.06833105  0.47434239     0.35400
C124        C  0.00206943  0.06911357  0.01800285     0.35400
C125        C  0.01648448  0.98479308  0.41260401    -0.22100
C126        C  0.00691368  0.01698931  0.41197653    -0.22100
C127        C  0.01600262  0.98518436  0.08156720    -0.22100
C128        C  0.02216773  0.01769901  0.08075070    -0.22100
C129        C  0.99879361  0.90203678  0.48371037    -0.23200
C130        C  0.99151093  0.90230822  0.01141525    -0.23200
C131        C  0.98376199  0.09965512  0.48258944    -0.23200
C132        C  0.99227755  0.10020687  0.01017063    -0.23200
C133        C  0.01487083  0.94321807  0.44865194    -0.18500
C134        C  0.98655938  0.05780436  0.44698953    -0.18500
C135        C  0.01174134  0.05934035  0.04511514    -0.18500
C136        C  0.99476044  0.94386399  0.04722676    -0.18500
H137        H  0.02604232  0.97017862  0.39512185     0.14400
H138        H  0.00842966  0.03196946  0.39404669     0.14400
H139        H  0.02102622  0.97020695  0.09931398     0.14400
H140        H  0.03211765  0.03261301  0.09791980     0.14400
H141        H  0.99681905  0.88129934  0.47070707     0.12700
H142        H  0.98373596  0.88172144  0.02396627     0.12700
H143        H  0.97494170  0.12009316  0.47002727     0.12700
H144        H  0.99057989  0.12108460  0.02303526     0.12700
H145        H  0.98599421  0.99992687  0.47516347     0.25900
H146        H  0.98556235  0.00169858  0.01946653     0.25900
C147        C  0.91377277  0.85127497  0.14703520    -0.11100
C148        C  0.94922404  0.84485763  0.12589534     0.06100
C149        C  0.97788956  0.81641013  0.12698682    -0.09800
C150        C  0.97533320  0.79679708  0.15000746    -0.11500
C151        C  0.94329457  0.80489566  0.17202005    -0.01300
C152        C  0.91092743  0.83146260  0.16990238    -0.10400
C153        C  0.96054231  0.86946866  0.10479702     0.06100
H154        H  0.00460992  0.81027973  0.11079622     0.08000
H155        H  0.00129316  0.77666726  0.15154665     0.11500
H156        H  0.88703868  0.83855358  0.18704712     0.11700
H157        H  0.89135100  0.87299730  0.14709316     0.08000
C158        C  0.92135376  0.88945927  0.09477179    -0.11100
C159        C  0.93298446  0.91427314  0.07680977    -0.10400
C160        C  0.98389764  0.91956321  0.06841769    -0.01300
C161        C  0.02310859  0.89954896  0.07799070    -0.11500
C162        C  0.01160327  0.87481460  0.09606720    -0.09900
H163        H  0.88160919  0.88584904  0.10070543     0.08000
H164        H  0.90213064  0.92909215  0.06906742     0.11700
H165        H  0.06250578  0.90299925  0.07131684     0.11500
H166        H  0.04297295  0.86035393  0.10367821     0.08000
C167        C  0.08564924  0.87939118  0.40900300    -0.11100
C168        C  0.04636376  0.86783448  0.39213459     0.06100
C169        C  0.99725599  0.88205239  0.39330394    -0.09800
C170        C  0.98735541  0.90705294  0.41123673    -0.11500
C171        C  0.02637011  0.91821928  0.42829541    -0.01300
C172        C  0.07555485  0.90430691  0.42715032    -0.10400
C173        C  0.05616680  0.84191774  0.37240722     0.06100
H174        H  0.96660429  0.87401985  0.38008621     0.08000
H175        H  0.94919253  0.91750914  0.41205122     0.11500
H176        H  0.10587160  0.91263021  0.44045290     0.11700
H177        H  0.12376388  0.86886539  0.40839581     0.08000
C178        C  0.09837720  0.84332547  0.35438962    -0.11100
C179        C  0.10037322  0.82336424  0.33156147    -0.10400
C180        C  0.06044986  0.80178440  0.32681077    -0.01300
C181        C  0.02125904  0.79818154  0.34623766    -0.11500
C182        C  0.01927377  0.81797559  0.36898233    -0.09900
H183        H  0.12719422  0.86166609  0.35657417     0.08000
H184        H  0.13015262  0.82692301  0.31633127     0.11700
H185        H  0.98964412  0.78204042  0.34251803     0.11500
H186        H  0.98682924  0.81613130  0.38284236     0.08000
C187        C  0.20413076  0.85638864  0.21760205    -0.11100
C188        C  0.24789224  0.84596247  0.23181006     0.06100
C189        C  0.24890785  0.81473643  0.24205870    -0.09800
C190        C  0.20564654  0.79504461  0.23960858    -0.11500
C191        C  0.16046425  0.80659624  0.22741332    -0.01300
C192        C  0.16075798  0.83701493  0.21563327    -0.10400
C193        C  0.29006349  0.86870234  0.23775811     0.06100
H194        H  0.28236625  0.80609171  0.25294609     0.08000
H195        H  0.20594733  0.77196623  0.24937125     0.11500
H196        H  0.12604334  0.84663906  0.20655320     0.11700
H197        H  0.20214931  0.88036374  0.20965785     0.08000
C198        C  0.31084895  0.88769552  0.21691186    -0.11100
C199        C  0.34791912  0.91072962  0.22283738    -0.10400
C200        C  0.36424185  0.91569018  0.24978980    -0.01300
C201        C  0.34344107  0.89680100  0.27069808    -0.11500
C202        C  0.30703475  0.87331201  0.26470072    -0.09900
H203        H  0.29828871  0.88471207  0.19602068     0.08000
H204        H  0.36355800  0.92500254  0.20642232     0.11700
H205        H  0.35536710  0.90032168  0.29163293     0.11500
H206        H  0.29097148  0.85936692  0.28121327     0.08000
C207        C  0.75794690  0.82190420  0.27395932    -0.11100
C208        C  0.76128146  0.85508733  0.27646849     0.06100
C209        C  0.80986922  0.86920967  0.27885777    -0.09800
C210        C  0.85442918  0.85074510  0.27713217    -0.11500
C211        C  0.85134277  0.81773510  0.27319250    -0.01300
C212        C  0.80272513  0.80328145  0.27260948    -0.10400
C213        C  0.71476937  0.87537160  0.27484305     0.06100
H214        H  0.81343308  0.89474918  0.28065996     0.08000
H215        H  0.89144931  0.86251187  0.27765579     0.11500
H216        H  0.79933058  0.77792719  0.26942241     0.11700
H217        H  0.72073897  0.81054514  0.27231166     0.08000
C218        C  0.68014272  0.87189874  0.25307746    -0.11100
C219        C  0.63870213  0.89292707  0.25014250    -0.10400
C220        C  0.63089671  0.91741024  0.26916420    -0.01300
C221        C  0.66495049  0.92054058  0.29116091    -0.11500
C222        C  0.70671020  0.89980096  0.29390289    -0.09900
H223        H  0.68621801  0.85360735  0.23784730     0.08000
H224        H  0.61327948  0.89053124  0.23279413     0.11700
H225        H  0.65966965  0.93947093  0.30589027     0.11500
H226        H  0.73303716  0.90297346  0.31077138     0.08000
C227        C  0.01492011  0.18318455  0.12830654    -0.11100
C228        C  0.04815861  0.15706971  0.12495352     0.06100
C229        C  0.08677173  0.15144440  0.14441761    -0.09800
C230        C  0.08935781  0.17008223  0.16795387    -0.11500
C231        C  0.05381898  0.19471875  0.17204561    -0.01300
C232        C  0.01770459  0.20185631  0.15176680    -0.10400
C233        C  0.03868279  0.13352846  0.10320480     0.06100
H234        H  0.11231171  0.13116662  0.14245250     0.08000
H235        H  0.11618821  0.16363905  0.18392941     0.11500
H236        H  0.98916154  0.22032915  0.15507889     0.11700
H237        H  0.98502395  0.18803694  0.11350421     0.08000
C238        C  0.98871349  0.12164762  0.09924331    -0.11100
C239        C  0.98004763  0.09727369  0.08053553    -0.10400
C240        C  0.02113018  0.08462121  0.06542316    -0.01300
C241        C  0.07083479  0.09687039  0.06881090    -0.11500
C242        C  0.07964911  0.12104903  0.08774024    -0.09900
H243        H  0.95662397  0.13059035  0.11120145     0.08000
H244        H  0.94142693  0.08818302  0.07785503     0.11700
H245        H  0.10272110  0.08753068  0.05692717     0.11500
H246        H  0.11839186  0.12993842  0.09041118     0.08000
C247        C  0.00225175  0.12529842  0.39698531    -0.11100
C248        C  0.95081446  0.13152625  0.38958524     0.06100
C249        C  0.91161332  0.11218299  0.40028983    -0.09800
C250        C  0.92354926  0.08755101  0.41834094    -0.11500
C251        C  0.97476803  0.08185025  0.42588967    -0.01300
C252        C  0.01407864  0.10074279  0.41506840    -0.10400
C253        C  0.93892470  0.15707253  0.36967269     0.06100
H254        H  0.87169832  0.11640256  0.39504148     0.08000
H255        H  0.89280622  0.07328823  0.42684903     0.11500
H256        H  0.05376404  0.09664547  0.42088340     0.11700
H257        H  0.03349465  0.13918762  0.38855499     0.08000
C258        C  0.96724147  0.18550032  0.36971717    -0.11100
C259        C  0.96430826  0.20638014  0.34763955    -0.10400
C260        C  0.93237488  0.19940525  0.32550769    -0.01300
C261        C  0.89996314  0.17292462  0.32673322    -0.11500
C262        C  0.90322429  0.15182850  0.34864966    -0.09900
H263        H  0.99420447  0.19054341  0.38594012     0.08000
H264        H  0.99050102  0.22632207  0.34664827     0.11700
H265        H  0.87635880  0.16669283  0.30934802     0.11500
H266        H  0.88113510  0.13009761  0.34786945     0.08000
C267        C  0.79583771  0.13619893  0.22186818    -0.11100
C268        C  0.75104336  0.14820316  0.23431842     0.06100
C269        C  0.75019753  0.17998635  0.24312896    -0.09800
C270        C  0.79418113  0.19901944  0.24045870    -0.11500
C271        C  0.83994088  0.18624081  0.22961833    -0.01300
C272        C  0.84003366  0.15489226  0.21987042    -0.10400
C273        C  0.70692757  0.12671466  0.23952079     0.06100
H274        H  0.71601232  0.18974861  0.25274967     0.08000
H275        H  0.79359812  0.22289236  0.24870165     0.11500
H276        H  0.87514107  0.14438458  0.21188289     0.11700
H277        H  0.79752754  0.11173176  0.21508573     0.08000
C278        C  0.68619118  0.10859760  0.21819047    -0.11100
C279        C  0.64737838  0.08642258  0.22336841    -0.10400
C280        C  0.62934837  0.08142895  0.25005857    -0.01300
C281        C  0.64981981  0.09962013  0.27143645    -0.11500
C282        C  0.68795386  0.12232567  0.26616675    -0.09900
H283        H  0.70032784  0.11150931  0.19752618     0.08000
H284        H  0.63198929  0.07266012  0.20662321     0.11700
H285        H  0.63649136  0.09604318  0.29217404     0.11500
H286        H  0.70386448  0.13572060  0.28299906     0.08000
C287        C  0.29257943  0.10334966  0.29358239    -0.11100
C288        C  0.28465496  0.12755059  0.27421609     0.06100
C289        C  0.31679628  0.12857746  0.25103594    -0.09800
C290        C  0.35506221  0.10552277  0.24704452    -0.11500
C291        C  0.36210051  0.08116406  0.26623316    -0.01300
C292        C  0.33079276  0.08034978  0.28956785    -0.10400
C293        C  0.23995680  0.14961425  0.27680284     0.06100
H294        H  0.31120346  0.14652613  0.23549985     0.08000
H295        H  0.37898305  0.10649012  0.22891126     0.11500
H296        H  0.33602484  0.06185097  0.30467643     0.11700
H297        H  0.26891155  0.10204312  0.31177772     0.08000
C298        C  0.19210578  0.13784186  0.28554378    -0.11100
C299        C  0.14792211  0.15664066  0.28397927    -0.10400
C300        C  0.15043439  0.18775580  0.27385148    -0.01300
C301        C  0.19863404  0.20053442  0.26698998    -0.11500
C302        C  0.24309141  0.18153572  0.26832805    -0.09900
H303        H  0.18803172  0.11336078  0.29190720     0.08000
H304        H  0.11112719  0.14622334  0.28927593     0.11700
H305        H  0.20141044  0.22436326  0.25880567     0.11500
H306        H  0.27954044  0.19142479  0.26179426     0.08000
C307        C  0.94501413  0.35712089  0.15730543    -0.11100
C308        C  0.98199582  0.35233151  0.13645993     0.06100
C309        C  0.01615645  0.32652217  0.13893488    -0.09800
C310        C  0.01501720  0.30703995  0.16193050    -0.11500
C311        C  0.97912918  0.31230385  0.18302755    -0.01300
C312        C  0.94332170  0.33710444  0.18027247    -0.10400
C313        C  0.98608427  0.37427949  0.11250907     0.06100
H314        H  0.04407900  0.32127305  0.12309706     0.08000
H315        H  0.04266329  0.28775216  0.16328696     0.11500
H316        H  0.91550877  0.34176742  0.19631013     0.11700
H317        H  0.91835107  0.37689766  0.15633632     0.08000
C318        C  0.94212643  0.38908031  0.10142201    -0.11100
C319        C  0.94653923  0.41000040  0.07929679    -0.10400
C320        C  0.99482534  0.41626651  0.06761140    -0.01300
C321        C  0.03864056  0.40128344  0.07820011    -0.11500
C322        C  0.03443120  0.38073958  0.10051008    -0.09900
H323        H  0.90423717  0.38446397  0.10975022     0.08000
H324        H  0.91237349  0.42165724  0.07149126     0.11700
H325        H  0.07630891  0.40633634  0.06971261     0.11500
H326        H  0.06941459  0.37056951  0.10874296     0.08000
C327        C  0.06005987  0.35247963  0.33879846    -0.11100
C328        C  0.01378061  0.36133227  0.35204641     0.06100
C329        C  0.96722217  0.34975237  0.34165249    -0.09800
C330        C  0.96660189  0.33001955  0.31889092    -0.11500
C331        C  0.01257301  0.32070348  0.30573087    -0.01300
C332        C  0.05947154  0.33231136  0.31584232    -0.10400
C333        C  0.01298340  0.38228119  0.37669371     0.06100
H334        H  0.93089779  0.35532463  0.35149344     0.08000
H335        H  0.92956042  0.32154373  0.31194917     0.11500
H336        H  0.09552133  0.32555371  0.30625762     0.11700
H337        H  0.09665160  0.36123345  0.34609336     0.08000
C338        C  0.05106474  0.37987887  0.39700469    -0.11100
C339        C  0.04877883  0.39908711  0.42042556    -0.10400
C340        C  0.00836786  0.42100080  0.42397960    -0.01300
C341        C  0.97010898  0.42316618  0.40393411    -0.11500
C342        C  0.97253962  0.40426619  0.38054395    -0.09900
H343        H  0.08234274  0.36296828  0.39492694     0.08000
H344        H  0.07897511  0.39728548  0.43553799     0.11700
H345        H  0.93896856  0.44019343  0.40611256     0.11500
H346        H  0.94300187  0.40731772  0.36522316     0.08000
C347        C  0.06150504  0.61492270  0.10253103    -0.11100
C348        C  0.01775487  0.61841808  0.11936057     0.06100
C349        C  0.97252560  0.60204802  0.11221034    -0.09800
C350        C  0.97091230  0.58292343  0.08891487    -0.11500
C351        C  0.01440181  0.57961594  0.07214037    -0.01300
C352        C  0.05978988  0.59572091  0.07908539    -0.10400
C353        C  0.01790787  0.63989028  0.14367761     0.06100
H354        H  0.93837756  0.60366334  0.12488717     0.08000
H355        H  0.93590505  0.57017185  0.08418629     0.11500
H356        H  0.09402368  0.59300021  0.06660104     0.11700
H357        H  0.09678088  0.62733717  0.10729616     0.08000
C358        C  0.06040198  0.64191587  0.16148616    -0.11100
C359        C  0.05893241  0.66215024  0.18442480    -0.10400
C360        C  0.01493719  0.68069858  0.18993195    -0.01300
C361        C  0.97289595  0.67862208  0.17191240    -0.11500
C362        C  0.97442717  0.65871026  0.14922792    -0.09900
H363        H  0.09444072  0.62756594  0.15788404     0.08000
H364        H  0.09194108  0.66319195  0.19782802     0.11700
H365        H  0.93844789  0.69275442  0.17510258     0.11500
H366        H  0.94148173  0.65842102  0.13574183     0.08000
C367        C  0.93914395  0.60348132  0.39026960    -0.11100
C368        C  0.97614580  0.62702830  0.38476623     0.06100
C369        C  0.01946976  0.62892656  0.40203370    -0.09800
C370        C  0.02584378  0.60777320  0.42381544    -0.11500
C371        C  0.98933129  0.58405837  0.42878286     0.02300
C372        C  0.94588512  0.58212731  0.41190045    -0.10400
C373        C  0.97092774  0.64873417  0.36065304     0.06100
H374        H  0.04953515  0.64610418  0.39826959     0.08000
H375        H  0.05998786  0.60933487  0.43637324     0.11500
H376        H  0.91738680  0.56383148  0.41536283     0.11700
H377        H  0.90493447  0.60144059  0.37785856     0.08000
C378        C  0.94809286  0.63838210  0.33608069    -0.11100
C379        C  0.94776616  0.65787833  0.31278371    -0.10400
C380        C  0.97105169  0.68782477  0.31348344    -0.01300
C381        C  0.99205769  0.69865483  0.33813778    -0.11500
C382        C  0.99133264  0.67962814  0.36148573    -0.09900
H383        H  0.93250321  0.61468019  0.33438830     0.08000
H384        H  0.93198809  0.64888553  0.29388749     0.11700
H385        H  0.01017129  0.72176070  0.33915596     0.11500
H386        H  0.00779669  0.68901347  0.38005740     0.08000
N387        N  0.00200899  0.50167533  0.95668514    -0.36800
N388        N  0.00865452  0.54974684  0.49939446    -0.57400
N389        N  0.00567620  0.49896628  0.53969387    -0.36800
N390        N  0.00606778  0.45091688  0.49682639    -0.57400
C391        C  0.00926510  0.52836213  0.94180082     0.26700
C392        C  0.01459078  0.47668835  0.94052333     0.26700
C393        C  0.01841941  0.52384020  0.55583094     0.26700
C394        C  0.01176762  0.47221101  0.55465864     0.26700
C395        C  0.99662618  0.56892866  0.97818234     0.35400
C396        C  0.00465841  0.56761959  0.52227233     0.35400
C397        C  0.00044005  0.43305075  0.97408766     0.35400
C398        C  0.99572514  0.43185250  0.51835214     0.35400
C399        C  0.02656681  0.52031860  0.91591105    -0.22100
C400        C  0.03038752  0.48778951  0.91517298    -0.22100
C401        C  0.03264615  0.51267768  0.58135658    -0.22100
C402        C  0.02809567  0.48021792  0.58068590    -0.22100
C403        C  0.98576135  0.59928378  0.98759699    -0.23200
C404        C  0.99129299  0.59851168  0.51551562    -0.23200
C405        C  0.98733731  0.40226243  0.98120605    -0.23200
C406        C  0.98420084  0.40152268  0.50926341    -0.23200
C407        C  0.99804687  0.55973858  0.95037743    -0.18500
C408        C  0.00825318  0.44410908  0.94708921    -0.18500
C409        C  0.00017207  0.44090596  0.54608278    -0.18500
C410        C  0.01340195  0.55645640  0.54913000    -0.18500
H411        H  0.03547596  0.53626420  0.89924319     0.14400
H412        H  0.04257608  0.47387359  0.89771829     0.14400
H413        H  0.04406831  0.52652964  0.59891365     0.14400
H414        H  0.03559182  0.46439734  0.59761619     0.14400
H415        H  0.97528142  0.61989277  0.97561962     0.12700
H416        H  0.98549263  0.61831305  0.52928664     0.12700
H417        H  0.98061480  0.38244260  0.96763093     0.12700
H418        H  0.97514831  0.38092860  0.52156811     0.12700
H419        H  0.98317384  0.50061703  0.97540738     0.25900
H420        H  0.98776060  0.50027884  0.52082343     0.25900
O421        O  0.96557681  0.28735072  0.77700268    -0.82000
C422        C  0.04380133  0.20589507  0.69967457     0.97300
O423        O  0.07051275  0.22812970  0.71025131    -0.71100
O424        O  0.02710505  0.28336961  0.71464824    -0.74700
Al425      Al  0.05565039  0.25663178  0.74084159     1.49000
C426        C  0.98300236  0.29280111  0.70811372     0.92600
O427        O  0.89467842  0.23170465  0.73094099    -0.81000
O428        O  0.98437836  0.19641381  0.78732030    -0.74500
Al429      Al  0.93685106  0.25766666  0.75363709     1.90100
O430        O  0.92573559  0.18653047  0.74394803    -0.73600
O431        O  0.06658658  0.18705318  0.75660152    -0.73400
O432        O  0.00779676  0.19216268  0.71247535    -0.79100
O433        O  0.09743049  0.23335559  0.76591885    -0.77300
O434        O  0.99621288  0.23679202  0.74812101    -1.13400
O435        O  0.04868494  0.28780019  0.76983167    -0.72600
C436        C  0.00944435  0.29761632  0.78277086     0.98100
C437        C  0.88942642  0.20239468  0.73426867     0.94500
Al438      Al  0.99620903  0.19464798  0.74988145     1.55600
O439        O  0.94396039  0.28513939  0.72213799    -0.77200
C440        C  0.10231757  0.20375887  0.76563356     0.98700
C441        C  0.94714339  0.21091655  0.79858513     0.93500
O442        O  0.92164972  0.23277585  0.78647623    -0.82600
N443        N  0.57513103  0.99917642  0.76196396    -0.36800
N444        N  0.49615042  0.94978693  0.76082155    -0.57400
N445        N  0.41718648  0.99870036  0.76060785    -0.36800
N446        N  0.49637212  0.04796086  0.75863480    -0.57400
C447        C  0.60435540  0.97274551  0.75897712     0.26700
C448        C  0.60429375  0.02428948  0.75419520     0.26700
C449        C  0.38803644  0.97314604  0.75405422     0.26700
C450        C  0.38768686  0.02498417  0.75737093     0.26700
C451        C  0.53733138  0.93127757  0.76659839     0.35400
C452        C  0.45422798  0.93084270  0.76186264     0.35400
C453        C  0.53832669  0.06679587  0.76043848     0.35400
C454        C  0.45504161  0.06664450  0.76379320     0.35400
C455        C  0.65292405  0.98113544  0.74965796    -0.22100
C456        C  0.65288164  0.01356635  0.74660456    -0.22100
C457        C  0.33900609  0.98348593  0.74699865    -0.22100
C458        C  0.33874882  0.01608465  0.74921194    -0.22100
C459        C  0.52149617  0.90035891  0.77138832    -0.23200
C460        C  0.46905280  0.89996229  0.76789867    -0.23200
C461        C  0.52350722  0.09773067  0.76615927    -0.23200
C462        C  0.47089722  0.09754205  0.76873572    -0.23200
C463        C  0.58928375  0.94127385  0.76526574    -0.18500
C464        C  0.58950198  0.05674926  0.75542111    -0.18500
C465        C  0.40303428  0.05675302  0.76245958    -0.18500
C466        C  0.40327955  0.94069531  0.75580387    -0.18500
H467        H  0.68511910  0.96547411  0.74538936     0.14400
H468        H  0.68538164  0.02758660  0.73991835     0.14400
H469        H  0.30633013  0.96908319  0.74132660     0.14400
H470        H  0.30619591  0.03150292  0.74518524     0.14400
H471        H  0.54527686  0.87994324  0.77611401     0.12700
H472        H  0.44488991  0.87918636  0.76954305     0.12700
H473        H  0.54786419  0.11834406  0.76835422     0.12700
H474        H  0.44711860  0.11803594  0.77329363     0.12700
H475        H  0.53950191  0.00009489  0.77165747     0.25900
H476        H  0.45338120  0.99833497  0.76950534     0.25900
O477        O  0.96817659  0.71578364  0.71775531    -0.82000
C478        C  0.05011455  0.79120726  0.79904298     0.97300
O479        O  0.07531860  0.76832489  0.78827996    -0.71100
O480        O  0.02528107  0.71565390  0.78403241    -0.74700
Al481      Al  0.05815901  0.74056452  0.75770098     1.49000
C482        C  0.98008493  0.70663282  0.78845281     0.92600
O483        O  0.90090918  0.77029685  0.76706845    -0.81000
O484        O  0.99386448  0.80504687  0.71100368    -0.74500
Al485      Al  0.94050627  0.74444394  0.74269799     1.90100
O486        O  0.93475600  0.81499013  0.75496330    -0.73600
O487        O  0.07540994  0.80963764  0.74229258    -0.73400
O488        O  0.01529472  0.80609783  0.78629418    -0.79100
O489        O  0.10340156  0.76231368  0.73298697    -0.77300
O490        O  0.00116195  0.76283980  0.74962120    -1.13400
O491        O  0.04918610  0.70935879  0.72874012    -0.72600
C492        C  0.01112581  0.70289161  0.71359436     0.98100
C493        C  0.89817089  0.79996072  0.76532669     0.94500
Al494      Al  0.00459860  0.80494947  0.74870567     1.55600
O495        O  0.94387194  0.71443997  0.77260439    -0.77200
C496        C  0.11044841  0.79180490  0.73373175     0.98700
C497        C  0.95556255  0.79269348  0.69923909     0.93500
O498        O  0.92746084  0.77188762  0.71098682    -0.82600
N499        N  0.99773203  0.00045816  0.95503353    -0.36800
N500        N  0.00690928  0.95235334  0.49804120    -0.57400
N501        N  0.00025078  0.00150905  0.53901191    -0.36800
N502        N  0.00130215  0.04984388  0.49599504    -0.57400
C503        C  0.01060445  0.97507964  0.93951717     0.26700
C504        C  0.99653905  0.02621499  0.93859499     0.26700
C505        C  0.00340902  0.97568701  0.55536544     0.26700
C506        C  0.01220443  0.02729220  0.55415834     0.26700
C507        C  0.00728569  0.93323787  0.97591665     0.35400
C508        C  0.99679856  0.93358560  0.51976685     0.35400
C509        C  0.98957440  0.06833016  0.97434464     0.35400
C510        C  0.00207342  0.06911486  0.51800099     0.35400
C511        C  0.01648416  0.98479450  0.91260556    -0.22100
C512        C  0.00691132  0.01699048  0.91197845    -0.22100
C513        C  0.01598274  0.98518593  0.58156706    -0.22100
C514        C  0.02215138  0.01770030  0.58075061    -0.22100
C515        C  0.99879825  0.90203641  0.98371107    -0.23200
C516        C  0.99150144  0.90230918  0.51141420    -0.23200
C517        C  0.98374785  0.09965354  0.98259256    -0.23200
C518        C  0.99228880  0.10020864  0.51016775    -0.23200
C519        C  0.01486992  0.94321841  0.94865248    -0.18500
C520        C  0.98655094  0.05780413  0.94699158    -0.18500
C521        C  0.01173939  0.05934157  0.54511384    -0.18500
C522        C  0.99474686  0.94386543  0.54722558    -0.18500
H523        H  0.02604471  0.97018079  0.89512335     0.14400
H524        H  0.00842781  0.03197112  0.89404893     0.14400
H525        H  0.02100143  0.97020859  0.59931426     0.14400
H526        H  0.03209946  0.03261411  0.59792013     0.14400
H527        H  0.99682187  0.88129919  0.97070760     0.12700
H528        H  0.98372359  0.88172263  0.52396499     0.12700
H529        H  0.97492214  0.12009126  0.97003108     0.12700
H530        H  0.99059372  0.12108684  0.52303186     0.12700
H531        H  0.98598649  0.99992571  0.97516458     0.25900
H532        H  0.98555794  0.00170029  0.51946441     0.25900
C533        C  0.91376437  0.85127817  0.64703631    -0.11100
C534        C  0.94921052  0.84485910  0.62589440     0.06100
C535        C  0.97787163  0.81640969  0.62698396    -0.09800
C536        C  0.97531651  0.79679638  0.65000451    -0.11500
C537        C  0.94328317  0.80489656  0.67201881    -0.01300
C538        C  0.91091996  0.83146547  0.66990320    -0.10400
C539        C  0.96052819  0.86946998  0.60479574     0.06100
H540        H  0.00458769  0.81027768  0.61079181     0.08000
H541        H  0.00127351  0.77666494  0.65154215     0.11500
H542        H  0.88703546  0.83855749  0.68704928     0.11700
H543        H  0.89134621  0.87300190  0.64709611     0.08000
C544        C  0.92134170  0.88946577  0.59477561    -0.11100
C545        C  0.93297293  0.91427976  0.57681381    -0.10400
C546        C  0.98388443  0.91956448  0.56841643    -0.01300
C547        C  0.02309314  0.89954509  0.57798425    -0.11500
C548        C  0.01158746  0.87481078  0.59606069    -0.09900
H549        H  0.88159814  0.88585961  0.60071302     0.08000
H550        H  0.90212057  0.92910290  0.56907562     0.11700
H551        H  0.06248888  0.90299138  0.57130636     0.11500
H552        H  0.04295603  0.86034625  0.60366758     0.08000
C553        C  0.08564025  0.87938922  0.90900233    -0.11100
C554        C  0.04635414  0.86783610  0.89213257     0.06100
C555        C  0.99724871  0.88205711  0.89330142    -0.09800
C556        C  0.98735111  0.90705726  0.91123508    -0.11500
C557        C  0.02636644  0.91822003  0.92829513    -0.01300
C558        C  0.07554885  0.90430451  0.92715048    -0.10400
C559        C  0.05615444  0.84191944  0.87240482     0.06100
H560        H  0.96659660  0.87402722  0.88008277     0.08000
H561        H  0.94918994  0.91751589  0.91204922     0.11500
H562        H  0.10586606  0.91262492  0.94045408     0.11700
H563        H  0.12375303  0.86886084  0.90839564     0.08000
C564        C  0.09836776  0.84332443  0.85438896    -0.11100
C565        C  0.10036425  0.82336273  0.83156115    -0.10400
C566        C  0.06043824  0.80178525  0.82680900    -0.01300
C567        C  0.02124367  0.79818511  0.84623419    -0.11500
C568        C  0.01925789  0.81797965  0.86897851    -0.09900
H569        H  0.12718749  0.86166325  0.85657462     0.08000
H570        H  0.13014654  0.82691948  0.81633220     0.11700
H571        H  0.98962696  0.78204567  0.84251341     0.11500
H572        H  0.98681110  0.81613737  0.88283726     0.08000
C573        C  0.20411981  0.85640078  0.71760573    -0.11100
C574        C  0.24788452  0.84597120  0.73180893     0.06100
C575        C  0.24890220  0.81474330  0.74205308    -0.09800
C576        C  0.20564020  0.79505212  0.73960284    -0.11500
C577        C  0.16045501  0.80660640  0.72741237    -0.01300
C578        C  0.16074602  0.83702780  0.71563722    -0.10400
C579        C  0.29005768  0.86870916  0.73775726     0.06100
H580        H  0.28236316  0.80609643  0.75293703     0.08000
H581        H  0.20594343  0.77197159  0.74936172     0.11500
H582        H  0.12602938  0.84665398  0.70656085     0.11700
H583        H  0.20213758  0.88037749  0.70966513     0.08000
C584        C  0.31085086  0.88769818  0.71691046    -0.11100
C585        C  0.34792419  0.91073033  0.72283616    -0.10400
C586        C  0.36424162  0.91569304  0.74978921    -0.01300
C587        C  0.34343280  0.89680804  0.77069798    -0.11500
C588        C  0.30702343  0.87332097  0.76470050    -0.09900
H589        H  0.29829404  0.88471298  0.69601887     0.08000
H590        H  0.36356939  0.92500020  0.70642082     0.11700
H591        H  0.35535478  0.90033059  0.79163324     0.11500
H592        H  0.29095379  0.85937889  0.78121319     0.08000
C593        C  0.75794128  0.82189749  0.77396254    -0.11100
C594        C  0.76127599  0.85508029  0.77647448     0.06100
C595        C  0.80986344  0.86920232  0.77886631    -0.09800
C596        C  0.85442333  0.85073793  0.77713955    -0.11500
C597        C  0.85133680  0.81772855  0.77319602    -0.01300
C598        C  0.80271940  0.80327487  0.77261157    -0.10400
C599        C  0.71476471  0.87536486  0.77484823     0.06100
H600        H  0.81342716  0.89474162  0.78067082     0.08000
H601        H  0.89144351  0.86250456  0.77766460     0.11500
H602        H  0.79932500  0.77792106  0.76942179     0.11700
H603        H  0.72073338  0.81053877  0.77231299     0.08000
C604        C  0.68014409  0.87189578  0.75307950    -0.11100
C605        C  0.63870501  0.89292502  0.75014383    -0.10400
C606        C  0.63089549  0.91740532  0.76916774    -0.01300
C607        C  0.66494316  0.92053188  0.79116750    -0.11500
C608        C  0.70670126  0.89979125  0.79391032    -0.09900
H609        H  0.68622312  0.85360673  0.73784766     0.08000
H610        H  0.61328691  0.89053228  0.73279325     0.11700
H611        H  0.65965894  0.93946007  0.80589859     0.11500
H612        H  0.73302391  0.90296075  0.81078114     0.08000
C613        C  0.01493226  0.18318414  0.62830874    -0.11100
C614        C  0.04816529  0.15706648  0.62495594     0.06100
C615        C  0.08677399  0.15143684  0.64442168    -0.09800
C616        C  0.08936104  0.17007332  0.66795870    -0.11500
C617        C  0.05382775  0.19471297  0.67204987    -0.01300
C618        C  0.01771746  0.20185440  0.65176997    -0.10400
C619        C  0.03868822  0.13352729  0.60320534     0.06100
H620        H  0.11230970  0.13115695  0.64245710     0.08000
H621        H  0.11618793  0.16362716  0.68393501     0.11500
H622        H  0.98917830  0.22032963  0.65508153     0.11700
H623        H  0.98503975  0.18804033  0.61350525     0.08000
C624        C  0.98871486  0.12165602  0.59923654    -0.11100
C625        C  0.98004633  0.09728330  0.58052790    -0.10400
C626        C  0.02113031  0.08462219  0.56542195    -0.01300
C627        C  0.07083932  0.09686197  0.56881658    -0.11500
C628        C  0.07965606  0.12103963  0.58774658    -0.09900
H629        H  0.95662354  0.13060485  0.61118994     0.08000
H630        H  0.94142242  0.08819994  0.57784203     0.11700
H631        H  0.10272713  0.08751560  0.55693782     0.11500
H632        H  0.11840200  0.12992162  0.59042273     0.08000
C633        C  0.00224116  0.12530195  0.89699068    -0.11100
C634        C  0.95080459  0.13152647  0.88958730     0.06100
C635        C  0.91160471  0.11217960  0.90028845    -0.09800
C636        C  0.92354110  0.08754767  0.91833971    -0.11500
C637        C  0.97475914  0.08185036  0.92589184    -0.01300
C638        C  0.01406847  0.10074631  0.91507368    -0.10400
C639        C  0.93891533  0.15707308  0.86967477     0.06100
H640        H  0.87169023  0.11639631  0.89503739     0.08000
H641        H  0.89279883  0.07328220  0.92684522     0.11500
H642        H  0.05375329  0.09665160  0.92089107     0.11700
H643        H  0.03348345  0.13919379  0.88856297     0.08000
C644        C  0.96722791  0.18550254  0.86972194    -0.11100
C645        C  0.96429871  0.20638246  0.84764418    -0.10400
C646        C  0.93237315  0.19940609  0.82550955    -0.01300
C647        C  0.89996400  0.17292404  0.82673239    -0.11500
C648        C  0.90322143  0.15182774  0.84864890    -0.09900
H649        H  0.99418544  0.19054682  0.88594717     0.08000
H650        H  0.99048913  0.22632572  0.84665523     0.11700
H651        H  0.87636535  0.16669136  0.80934525     0.11500
H652        H  0.88113529  0.13009578  0.84786662     0.08000
C653        C  0.79584958  0.13619348  0.72187547    -0.11100
C654        C  0.75105472  0.14819823  0.73432476     0.06100
C655        C  0.75020751  0.17998234  0.74313285    -0.09800
C656        C  0.79419035  0.19901596  0.74046109    -0.11500
C657        C  0.83995082  0.18623706  0.72962173    -0.01300
C658        C  0.84004482  0.15488739  0.71987627    -0.10400
C659        C  0.70693927  0.12670972  0.73952811     0.06100
H660        H  0.71602178  0.18974498  0.75275277     0.08000
H661        H  0.79360625  0.22288971  0.74870224     0.11500
H662        H  0.87515270  0.14437938  0.71188964     0.11700
H663        H  0.79754019  0.11172566  0.71509479     0.08000
C664        C  0.68619747  0.10859539  0.71819760    -0.11100
C665        C  0.64738394  0.08642088  0.72337600    -0.10400
C666        C  0.62935845  0.08142513  0.75006674    -0.01300
C667        C  0.64983562  0.09961344  0.77144488    -0.11500
C668        C  0.68797066  0.12231835  0.76617479    -0.09900
H669        H  0.70033042  0.11150892  0.69753279     0.08000
H670        H  0.63199056  0.07266053  0.70663064     0.11700
H671        H  0.63651088  0.09603473  0.79218290     0.11500
H672        H  0.70388567  0.13571114  0.78300719     0.08000
C673        C  0.29259331  0.10335350  0.79358902    -0.11100
C674        C  0.28466768  0.12755272  0.77422134     0.06100
C675        C  0.31680762  0.12857803  0.75104065    -0.09800
C676        C  0.35507308  0.10552290  0.74704985    -0.11500
C677        C  0.36211160  0.08116542  0.76623960    -0.01300
C678        C  0.33080592  0.08035315  0.78957507    -0.10400
C679        C  0.23996837  0.14961526  0.77680706     0.06100
H680        H  0.31121361  0.14652559  0.73550371     0.08000
H681        H  0.37899285  0.10648864  0.72891612     0.11500
H682        H  0.33603863  0.06185538  0.80468452     0.11700
H683        H  0.26892611  0.10204838  0.81178470     0.08000
C684        C  0.19211736  0.13784116  0.78554604    -0.11100
C685        C  0.14793284  0.15663900  0.78398131    -0.10400
C686        C  0.15044425  0.18775492  0.77385523    -0.01300
C687        C  0.19864377  0.20053502  0.76699532    -0.11500
C688        C  0.24310209  0.18153715  0.76833346    -0.09900
H689        H  0.18804448  0.11335959  0.79190834     0.08000
H690        H  0.11113817  0.14622050  0.78927669     0.11700
H691        H  0.20141952  0.22436450  0.75881230     0.11500
H692        H  0.27955122  0.19142715  0.76180084     0.08000
C693        C  0.94502400  0.35711444  0.65730428    -0.11100
C694        C  0.98200880  0.35232709  0.63646008     0.06100
C695        C  0.01617552  0.32652110  0.63893699    -0.09800
C696        C  0.01503727  0.30703943  0.66193294    -0.11500
C697        C  0.97914439  0.31230068  0.68302821    -0.01300
C698        C  0.94333272  0.33709858  0.68027153    -0.10400
C699        C  0.98609322  0.37427384  0.61250846     0.06100
H700        H  0.04410132  0.32127390  0.62310031     0.08000
H701        H  0.04268723  0.28775389  0.66329081     0.11500
H702        H  0.91551654  0.34175973  0.69630799     0.11700
H703        H  0.91835683  0.37688900  0.65633383     0.08000
C704        C  0.94213209  0.38906982  0.60142035    -0.11100
C705        C  0.94654082  0.40999047  0.57929543    -0.10400
C706        C  0.99482620  0.41626178  0.56761146    -0.01300
C707        C  0.03864449  0.40128237  0.57820038    -0.11500
C708        C  0.03443916  0.38073814  0.60051018    -0.09900
H709        H  0.90424347  0.38444954  0.60974773     0.08000
H710        H  0.91237253  0.42164381  0.57148918     0.11700
H711        H  0.07631197  0.40633880  0.56971338     0.11500
H712        H  0.06942466  0.37057150  0.60874365     0.08000
C713        C  0.06006582  0.35248877  0.83879331    -0.11100
C714        C  0.01378747  0.36133557  0.85204504     0.06100
C715        C  0.96723013  0.34974872  0.84165557    -0.09800
C716        C  0.96661003  0.33001448  0.81889484    -0.11500
C717        C  0.01258042  0.32070416  0.80573098    -0.01300
C718        C  0.05947779  0.33231927  0.81583787    -0.10400
C719        C  0.01299013  0.38228516  0.87669199     0.06100
H720        H  0.93090690  0.35531662  0.85149954     0.08000
H721        H  0.92956951  0.32153299  0.81195682     0.11500
H722        H  0.09552703  0.32556658  0.80625002     0.11700
H723        H  0.09665650  0.36124808  0.84608482     0.08000
C724        C  0.05107540  0.37988628  0.89700117    -0.11100
C725        C  0.04878903  0.39909444  0.92042216    -0.10400
C726        C  0.00837389  0.42100486  0.92397809    -0.01300
C727        C  0.97011131  0.42316690  0.90393423    -0.11500
C728        C  0.97254205  0.40426672  0.88054405    -0.09900
H729        H  0.08235681  0.36297831  0.89492192     0.08000
H730        H  0.07898817  0.39729534  0.93553320     0.11700
H731        H  0.93896753  0.44019157  0.90611406     0.11500
H732        H  0.94300081  0.40731520  0.86522467     0.08000
C733        C  0.06151910  0.61490891  0.60253500    -0.11100
C734        C  0.01776174  0.61841813  0.61935724     0.06100
C735        C  0.97252540  0.60205854  0.61220151    -0.09800
C736        C  0.97091197  0.58293147  0.58890750    -0.11500
C737        C  0.01440827  0.57961119  0.57213994    -0.01300
C738        C  0.05980378  0.59570474  0.57909083    -0.10400
C739        C  0.01791590  0.63989340  0.64367246     0.06100
H740        H  0.93837134  0.60368403  0.62487284     0.08000
H741        H  0.93589857  0.57018856  0.58417442     0.11500
H742        H  0.09404256  0.59297380  0.56661193     0.11700
H743        H  0.09680092  0.62731466  0.60730441     0.08000
C744        C  0.06040360  0.64191260  0.66148595    -0.11100
C745        C  0.05893369  0.66214829  0.68442376    -0.10400
C746        C  0.01494433  0.68070410  0.68992536    -0.01300
C747        C  0.97291076  0.67863537  0.67190014    -0.11500
C748        C  0.97444247  0.65872242  0.64921637    -0.09900
H749        H  0.09443688  0.62755607  0.65788880     0.08000
H750        H  0.09193650  0.66318408  0.69783139     0.11700
H751        H  0.93846822  0.69277425  0.67508572     0.11500
H752        H  0.94150285  0.65843886  0.63572619     0.08000
C753        C  0.93913793  0.60348669  0.89026972    -0.11100
C754        C  0.97614005  0.62703337  0.88476589     0.06100
C755        C  0.01946377  0.62893210  0.90203342    -0.09800
C756        C  0.02583823  0.60777879  0.92381514    -0.11500
C757        C  0.98932623  0.58406370  0.92878270     0.02300
C758        C  0.94587939  0.58213283  0.91190071    -0.10400
C759        C  0.97092392  0.64873758  0.86065151     0.06100
H760        H  0.04952908  0.64610970  0.89826905     0.08000
H761        H  0.05998261  0.60934053  0.93637269     0.11500
H762        H  0.91738124  0.56383695  0.91536324     0.11700
H763        H  0.90492857  0.60144574  0.87785859     0.08000
C764        C  0.94809304  0.63838327  0.83607884    -0.11100
C765        C  0.94776966  0.65787753  0.81278064    -0.10400
C766        C  0.97105465  0.68782416  0.81347953    -0.01300
C767        C  0.99205664  0.69865651  0.83813408    -0.11500
C768        C  0.99132829  0.67963174  0.86148318    -0.09900
H769        H  0.93250398  0.61468111  0.83438732     0.08000
H770        H  0.93199404  0.64888324  0.79388436     0.11700
H771        H  0.01016897  0.72176281  0.83915166     0.11500
H772        H  0.00778943  0.68901861  0.88005501     0.08000
loop_ 
_geom_bond_atom_site_label_1 
_geom_bond_atom_site_label_2 
_geom_bond_distance 
_geom_bond_site_symmetry_2 
_ccdc_geom_bond_type 
N1            C6   1.355       .  A
N1            C5   1.353       .  A
N1           H33   1.039   1_455  S
N2           C10   1.354   1_556  A
N2          C395   1.353   1_455  A
N3            C8   1.353       .  A
N3            C7   1.355       .  A
N3           H34   1.038   1_455  S
N4           C12   1.352   1_456  A
N4          C397   1.353       .  A
C5           C13   1.386       .  A
C5           C21   1.415   1_455  A
C6           C22   1.419       .  A
C6           C14   1.389       .  A
C7           C15   1.387       .  A
C7           C24   1.418       .  A
C8           C23   1.417       .  A
C8           C16   1.387       .  A
C9          N388   1.353   1_655  A
C9           C21   1.417       .  A
C9           C17   1.386       .  A
C10          C24   1.416       .  A
C10          C18   1.385   1_455  A
C11         N390   1.353       .  A
C11          C19   1.386   1_455  A
C11          C22   1.417       .  A
C12          C20   1.387       .  A
C12          C23   1.417   1_655  A
C13          C14   1.373       .  A
C13          H25   1.082       .  S
C14          H26   1.082       .  S
C15          C16   1.373       .  A
C15          H27   1.082       .  S
C16          H28   1.082       .  S
C17         C404   1.377       .  A
C17          H29   1.082       .  S
C18         C403   1.377   1_554  A
C18          H30   1.082       .  S
C19         C406   1.377       .  A
C19          H31   1.082       .  S
C20         C405   1.377   1_554  A
C20          H32   1.082       .  S
C21         C371   1.490       .  S
C22         C340   1.493       .  S
C23         C320   1.486   1_455  S
C24         C351   1.491       .  S
O35          C50   1.253   1_655  A
O35         Al43   1.855       .  S
C36         C231   1.455       .  S
C36          O46   1.266       .  A
C36          O37   1.278       .  A
O37         Al39   1.957       .  S
O38          C40   1.253   1_455  A
O38         Al39   1.861       .  S
Al39         O47   1.910       .  S
Al39         O49   1.941       .  S
Al39         O48   1.792   1_455  S
C40         C311   1.482       .  S
C40          O53   1.266       .  A
O41          C51   1.253       .  A
O41         Al43   1.910       .  S
O42          C55   1.266       .  A
O42         Al52   1.861       .  S
Al43         O56   1.960       .  S
Al43         O53   1.938       .  S
Al43         O48   1.791       .  S
O44          C51   1.248       .  A
O44         Al52   1.886       .  S
O45          C54   1.249       .  A
O45         Al52   1.884   1_455  S
O46         Al52   1.859   1_455  S
O47          C54   1.252       .  A
O48         Al52   1.777       .  S
O49          C50   1.266       .  A
C50         C331   1.490       .  S
C51         C271   1.474       .  S
C54         C300   1.475       .  S
C55         C260   1.456       .  S
C55          O56   1.279       .  A
N57          C62   1.357   1_565  A
N57          C61   1.352       .  A
N57          H89   1.039   1_565  S
N58          C65   1.351       .  A
N58          C66   1.353       .  A
N59          C64   1.353   1_565  A
N59          C63   1.357       .  A
N59          H90   1.037       .  S
N60          C67   1.353       .  A
N60          C68   1.351       .  A
C61          C69   1.387       .  A
C61          C77   1.417       .  A
C62          C78   1.419       .  A
C62          C70   1.388       .  A
C63          C71   1.389       .  A
C63          C80   1.424       .  A
C64          C79   1.420       .  A
C64          C72   1.386       .  A
C65          C77   1.416       .  A
C65          C73   1.387       .  A
C66          C80   1.417       .  A
C66          C74   1.387       .  A
C67          C75   1.385       .  A
C67          C78   1.413       .  A
C68          C76   1.388       .  A
C68          C79   1.416       .  A
C69          C70   1.374   1_565  A
C69          H81   1.082       .  S
C70          H82   1.082       .  S
C71          C72   1.377   1_565  A
C71          H83   1.082       .  S
C72          H84   1.082       .  S
C73          C74   1.373       .  A
C73          H85   1.082       .  S
C74          H86   1.081       .  S
C75          C76   1.371       .  A
C75          H87   1.082       .  S
C76          H88   1.082       .  S
C77         C220   1.485       .  S
C78         C280   1.492       .  S
C79         C291   1.486       .  S
C80         C200   1.494       .  S
O91         C106   1.254   1_655  A
O91         Al99   1.858       .  S
C92         C180   1.458       .  S
C92         O102   1.265       .  A
C92          O93   1.276       .  A
O93         Al95   1.954       .  S
O94          C96   1.253   1_455  A
O94         Al95   1.869       .  S
Al95        O103   1.919       .  S
Al95        O105   1.949       .  S
Al95        O104   1.794       .  S
C96         C380   1.479       .  S
C96         O109   1.264       .  A
O97         C107   1.254       .  A
O97         Al99   1.910       .  S
O98         C111   1.265       .  A
O98        Al108   1.869   1_655  S
Al99        O112   1.966       .  S
Al99        O109   1.937       .  S
Al99        O104   1.791   1_655  S
O100        C107   1.250       .  A
O100       Al108   1.884   1_655  S
O101        C110   1.249       .  A
O101       Al108   1.875       .  S
O102       Al108   1.864       .  S
O103        C110   1.256       .  A
O104       Al108   1.776       .  S
O105        C106   1.268       .  A
C106        C360   1.492       .  S
C107        C211   1.475       .  S
C110        C191   1.474       .  S
C111        C151   1.465       .  S
C111        O112   1.278       .  A
N113        C118   1.351       .  A
N113        C117   1.352   1_645  A
N113        H145   1.032   1_545  S
N114        C122   1.352   1_456  A
N114        C507   1.350       .  A
N115        C120   1.353       .  A
N115        C119   1.353   1_545  A
N115        H146   1.032   1_455  S
N116        C124   1.350   1_556  A
N116        C509   1.351   1_455  A
C117        C125   1.389       .  A
C117        C133   1.418       .  A
C118        C134   1.415       .  A
C118        C126   1.386   1_655  A
C119        C127   1.385       .  A
C119        C136   1.417   1_455  A
C120        C135   1.421       .  A
C120        C128   1.389       .  A
C121        N500   1.350       .  A
C121        C133   1.414       .  A
C121        C129   1.387   1_455  A
C122        C136   1.414       .  A
C122        C130   1.387       .  A
C123        N502   1.351   1_655  A
C123        C131   1.387       .  A
C123        C134   1.414       .  A
C124        C132   1.387   1_455  A
C124        C135   1.414       .  A
C125        C126   1.378   1_565  A
C125        H137   1.082       .  S
C126        H138   1.082       .  S
C127        C128   1.380   1_565  A
C127        H139   1.082       .  S
C128        H140   1.082       .  S
C129        C516   1.370       .  A
C129        H141   1.082       .  S
C130        C515   1.370   1_554  A
C130        H142   1.082       .  S
C131        C518   1.370       .  A
C131        H143   1.082       .  S
C132        C517   1.370   1_554  A
C132        H144   1.082       .  S
C133        C171   1.479       .  S
C134        C251   1.479       .  S
C135        C240   1.479       .  S
C136        C160   1.485       .  S
C147        C148   1.409       .  A
C147        C152   1.399       .  A
C147        H157   1.082       .  S
C148        C149   1.409       .  A
C148        C153   1.493       .  S
C149        C150   1.400       .  A
C149        H154   1.083   1_655  S
C150        C151   1.401       .  A
C150        H155   1.084   1_655  S
C151        C152   1.401       .  A
C152        H156   1.084       .  S
C153        C158   1.408       .  A
C153        C162   1.410   1_655  A
C158        C159   1.400       .  A
C158        H163   1.082       .  S
C159        C160   1.402       .  A
C159        H164   1.083       .  S
C160        C161   1.401   1_655  A
C161        C162   1.400       .  A
C161        H165   1.083       .  S
C162        H166   1.082       .  S
C167        C168   1.404       .  A
C167        C172   1.399       .  A
C167        H177   1.083       .  S
C168        C169   1.407   1_455  A
C168        C173   1.478       .  S
C169        C170   1.394       .  A
C169        H174   1.083       .  S
C170        C171   1.398   1_655  A
C170        H175   1.083       .  S
C171        C172   1.404       .  A
C172        H176   1.083       .  S
C173        C178   1.406       .  A
C173        C182   1.404       .  A
C178        C179   1.400       .  A
C178        H183   1.083       .  S
C179        C180   1.401       .  A
C179        H184   1.084       .  S
C180        C181   1.400       .  A
C181        C182   1.392       .  A
C181        H185   1.084   1_455  S
C182        H186   1.083   1_455  S
C187        C188   1.404       .  A
C187        C192   1.397       .  A
C187        H197   1.083       .  S
C188        C189   1.408       .  A
C188        C193   1.487       .  S
C189        C190   1.404       .  A
C189        H194   1.083       .  S
C190        C191   1.404       .  A
C190        H195   1.083       .  S
C191        C192   1.405       .  A
C192        H196   1.084       .  S
C193        C198   1.405       .  A
C193        C202   1.407       .  A
C198        C199   1.400       .  A
C198        H203   1.083       .  S
C199        C200   1.404       .  A
C199        H204   1.083       .  S
C200        C201   1.405       .  A
C201        C202   1.403       .  A
C201        H205   1.083       .  S
C202        H206   1.083       .  S
C207        C208   1.406       .  A
C207        C212   1.401       .  A
C207        H217   1.083       .  S
C208        C209   1.402       .  A
C208        C213   1.479       .  S
C209        C210   1.394       .  A
C209        H214   1.083       .  S
C210        C211   1.406       .  A
C210        H215   1.083       .  S
C211        C212   1.404       .  A
C212        H216   1.083       .  S
C213        C218   1.405       .  A
C213        C222   1.404       .  A
C218        C219   1.398       .  A
C218        H223   1.083       .  S
C219        C220   1.403       .  A
C219        H224   1.083       .  S
C220        C221   1.403       .  A
C221        C222   1.396       .  A
C221        H225   1.083       .  S
C222        H226   1.083       .  S
C227        C228   1.404       .  A
C227        C232   1.395       .  A
C227        H237   1.083   1_455  S
C228        C229   1.406       .  A
C228        C233   1.477       .  S
C229        C230   1.397       .  A
C229        H234   1.083       .  S
C230        C231   1.399       .  A
C230        H235   1.084       .  S
C231        C232   1.401       .  A
C232        H236   1.084   1_455  S
C233        C238   1.406   1_455  A
C233        C242   1.404       .  A
C238        C239   1.396       .  A
C238        H243   1.083       .  S
C239        C240   1.400   1_655  A
C239        H244   1.083       .  S
C240        C241   1.402       .  A
C241        C242   1.397       .  A
C241        H245   1.083       .  S
C242        H246   1.083       .  S
C247        C248   1.409   1_455  A
C247        C252   1.396       .  A
C247        H257   1.083       .  S
C248        C249   1.406       .  A
C248        C253   1.485       .  S
C249        C250   1.398       .  A
C249        H254   1.083       .  S
C250        C251   1.401       .  A
C250        H255   1.083       .  S
C251        C252   1.399   1_655  A
C252        H256   1.083       .  S
C253        C258   1.407       .  A
C253        C262   1.406       .  A
C258        C259   1.396       .  A
C258        H263   1.083       .  S
C259        C260   1.399       .  A
C259        H264   1.084       .  S
C260        C261   1.401       .  A
C261        C262   1.396       .  A
C261        H265   1.084       .  S
C262        H266   1.083       .  S
C267        C268   1.404       .  A
C267        C272   1.397       .  A
C267        H277   1.083       .  S
C268        C269   1.406       .  A
C268        C273   1.484       .  S
C269        C270   1.403       .  A
C269        H274   1.083       .  S
C270        C271   1.405       .  A
C270        H275   1.083       .  S
C271        C272   1.404       .  A
C272        H276   1.083       .  S
C273        C278   1.404       .  A
C273        C282   1.406       .  A
C278        C279   1.399       .  A
C278        H283   1.083       .  S
C279        C280   1.404       .  A
C279        H284   1.083       .  S
C280        C281   1.405       .  A
C281        C282   1.402       .  A
C281        H285   1.083       .  S
C282        H286   1.083       .  S
C287        C288   1.408       .  A
C287        C292   1.397       .  A
C287        H297   1.083       .  S
C288        C289   1.408       .  A
C288        C293   1.489       .  S
C289        C290   1.399       .  A
C289        H294   1.083       .  S
C290        C291   1.403       .  A
C290        H295   1.083       .  S
C291        C292   1.401       .  A
C292        H296   1.083       .  S
C293        C298   1.405       .  A
C293        C302   1.409       .  A
C298        C299   1.393       .  A
C298        H303   1.082       .  S
C299        C300   1.403       .  A
C299        H304   1.084       .  S
C300        C301   1.404       .  A
C301        C302   1.403       .  A
C301        H305   1.083       .  S
C302        H306   1.083       .  S
C307        C308   1.413       .  A
C307        C312   1.407       .  A
C307        H317   1.082       .  S
C308        C309   1.405   1_655  A
C308        C313   1.498       .  S
C309        C310   1.394       .  A
C309        H314   1.082       .  S
C310        C311   1.406   1_455  A
C310        H315   1.084       .  S
C311        C312   1.402       .  A
C312        H316   1.083       .  S
C313        C318   1.409       .  A
C313        C322   1.412   1_655  A
C318        C319   1.402       .  A
C318        H323   1.082       .  S
C319        C320   1.402       .  A
C319        H324   1.083       .  S
C320        C321   1.400   1_655  A
C321        C322   1.398       .  A
C321        H325   1.083       .  S
C322        H326   1.082       .  S
C327        C328   1.412       .  A
C327        C332   1.410       .  A
C327        H337   1.082       .  S
C328        C329   1.403   1_455  A
C328        C333   1.496       .  S
C329        C330   1.391       .  A
C329        H334   1.083       .  S
C330        C331   1.409   1_655  A
C330        H335   1.083       .  S
C331        C332   1.406       .  A
C332        H336   1.083       .  S
C333        C338   1.409       .  A
C333        C342   1.409   1_455  A
C338        C339   1.405       .  A
C338        H343   1.082       .  S
C339        C340   1.405       .  A
C339        H344   1.083       .  S
C340        C341   1.402   1_455  A
C341        C342   1.396       .  A
C341        H345   1.083       .  S
C342        H346   1.082       .  S
C347        C348   1.409       .  A
C347        C352   1.406       .  A
C347        H357   1.083       .  S
C348        C349   1.409   1_455  A
C348        C353   1.496       .  S
C349        C350   1.398       .  A
C349        H354   1.083       .  S
C350        C351   1.401   1_655  A
C350        H355   1.083       .  S
C351        C352   1.405       .  A
C352        H356   1.083       .  S
C353        C358   1.412       .  A
C353        C362   1.402   1_455  A
C358        C359   1.411       .  A
C358        H363   1.082       .  S
C359        C360   1.406       .  A
C359        H364   1.083       .  S
C360        C361   1.409   1_455  A
C361        C362   1.393       .  A
C361        H365   1.083       .  S
C362        H366   1.083       .  S
C367        C368   1.409       .  A
C367        C372   1.401       .  A
C367        H377   1.082       .  S
C368        C369   1.413   1_655  A
C368        C373   1.500       .  S
C369        C370   1.400       .  A
C369        H374   1.082       .  S
C370        C371   1.400   1_455  A
C370        H375   1.083       .  S
C371        C372   1.404       .  A
C372        H376   1.083       .  S
C373        C378   1.414       .  A
C373        C382   1.407       .  A
C378        C379   1.406       .  A
C378        H383   1.082       .  S
C379        C380   1.401       .  A
C379        H384   1.083       .  S
C380        C381   1.404       .  A
C381        C382   1.397       .  A
C381        H385   1.084   1_655  S
C382        H386   1.082   1_655  S
N387        C392   1.355       .  A
N387        C391   1.353       .  A
N387        H419   1.039   1_455  S
N388        C396   1.354       .  A
N389        C394   1.353       .  A
N389        C393   1.355       .  A
N389        H420   1.038   1_455  S
N390        C398   1.352   1_455  A
C391        C399   1.386       .  A
C391        C407   1.415   1_455  A
C392        C408   1.419       .  A
C392        C400   1.389       .  A
C393        C401   1.387       .  A
C393        C410   1.418       .  A
C394        C409   1.417       .  A
C394        C402   1.387       .  A
C395        C407   1.417       .  A
C395        C403   1.386       .  A
C396        C410   1.416       .  A
C396        C404   1.385   1_455  A
C397        C405   1.386   1_455  A
C397        C408   1.417       .  A
C398        C406   1.387       .  A
C398        C409   1.417   1_655  A
C399        C400   1.373       .  A
C399        H411   1.082       .  S
C400        H412   1.082       .  S
C401        C402   1.373       .  A
C401        H413   1.082       .  S
C402        H414   1.082       .  S
C403        H415   1.082       .  S
C404        H416   1.082       .  S
C405        H417   1.082       .  S
C406        H418   1.082       .  S
C407        C757   1.490       .  S
C408        C726   1.493       .  S
C409        C706   1.486   1_455  S
C410        C737   1.491       .  S
O421        C436   1.253   1_655  A
O421       Al429   1.855       .  S
C422        C617   1.455       .  S
C422        O432   1.266       .  A
C422        O423   1.278       .  A
O423       Al425   1.957       .  S
O424        C426   1.253   1_455  A
O424       Al425   1.861       .  S
Al425       O433   1.910       .  S
Al425       O435   1.941       .  S
Al425       O434   1.792   1_455  S
C426        C697   1.482       .  S
C426        O439   1.266       .  A
O427        C437   1.253       .  A
O427       Al429   1.910       .  S
O428        C441   1.266       .  A
O428       Al438   1.861       .  S
Al429       O442   1.960       .  S
Al429       O439   1.938       .  S
Al429       O434   1.791       .  S
O430        C437   1.248       .  A
O430       Al438   1.886       .  S
O431        C440   1.249       .  A
O431       Al438   1.884   1_455  S
O432       Al438   1.859   1_455  S
O433        C440   1.252       .  A
O434       Al438   1.777       .  S
O435        C436   1.266       .  A
C436        C717   1.490       .  S
C437        C657   1.474       .  S
C440        C686   1.475       .  S
C441        C646   1.456       .  S
C441        O442   1.279       .  A
N443        C448   1.357   1_565  A
N443        C447   1.352       .  A
N443        H475   1.039   1_565  S
N444        C451   1.351       .  A
N444        C452   1.353       .  A
N445        C450   1.353   1_565  A
N445        C449   1.357       .  A
N445        H476   1.037       .  S
N446        C453   1.353       .  A
N446        C454   1.351       .  A
C447        C455   1.387       .  A
C447        C463   1.417       .  A
C448        C464   1.419       .  A
C448        C456   1.388       .  A
C449        C457   1.389       .  A
C449        C466   1.424       .  A
C450        C465   1.420       .  A
C450        C458   1.386       .  A
C451        C463   1.416       .  A
C451        C459   1.387       .  A
C452        C466   1.417       .  A
C452        C460   1.387       .  A
C453        C461   1.385       .  A
C453        C464   1.413       .  A
C454        C462   1.388       .  A
C454        C465   1.416       .  A
C455        C456   1.374   1_565  A
C455        H467   1.082       .  S
C456        H468   1.082       .  S
C457        C458   1.377   1_565  A
C457        H469   1.082       .  S
C458        H470   1.082       .  S
C459        C460   1.373       .  A
C459        H471   1.082       .  S
C460        H472   1.081       .  S
C461        C462   1.371       .  A
C461        H473   1.082       .  S
C462        H474   1.082       .  S
C463        C606   1.485       .  S
C464        C666   1.492       .  S
C465        C677   1.486       .  S
C466        C586   1.494       .  S
O477        C492   1.254   1_655  A
O477       Al485   1.858       .  S
C478        C566   1.458       .  S
C478        O488   1.265       .  A
C478        O479   1.276       .  A
O479       Al481   1.954       .  S
O480        C482   1.253   1_455  A
O480       Al481   1.869       .  S
Al481       O489   1.919       .  S
Al481       O491   1.949       .  S
Al481       O490   1.794       .  S
C482        C766   1.479       .  S
C482        O495   1.264       .  A
O483        C493   1.254       .  A
O483       Al485   1.910       .  S
O484        C497   1.265       .  A
O484       Al494   1.869   1_655  S
Al485       O498   1.966       .  S
Al485       O495   1.937       .  S
Al485       O490   1.791   1_655  S
O486        C493   1.250       .  A
O486       Al494   1.884   1_655  S
O487        C496   1.249       .  A
O487       Al494   1.875       .  S
O488       Al494   1.864       .  S
O489        C496   1.256       .  A
O490       Al494   1.776       .  S
O491        C492   1.268       .  A
C492        C746   1.492       .  S
C493        C597   1.475       .  S
C496        C577   1.474       .  S
C497        C537   1.465       .  S
C497        O498   1.278       .  A
N499        C504   1.351       .  A
N499        C503   1.352   1_645  A
N499        H531   1.032   1_545  S
N500        C508   1.352   1_455  A
N501        C506   1.353       .  A
N501        C505   1.353   1_545  A
N501        H532   1.032   1_455  S
N502        C510   1.350       .  A
C503        C511   1.389       .  A
C503        C519   1.418       .  A
C504        C520   1.415       .  A
C504        C512   1.386   1_655  A
C505        C513   1.385       .  A
C505        C522   1.417   1_455  A
C506        C521   1.421       .  A
C506        C514   1.389       .  A
C507        C519   1.414       .  A
C507        C515   1.387   1_455  A
C508        C522   1.414       .  A
C508        C516   1.387       .  A
C509        C517   1.387       .  A
C509        C520   1.414       .  A
C510        C518   1.387   1_455  A
C510        C521   1.414       .  A
C511        C512   1.378   1_565  A
C511        H523   1.082       .  S
C512        H524   1.082       .  S
C513        C514   1.380   1_565  A
C513        H525   1.082       .  S
C514        H526   1.082       .  S
C515        H527   1.082       .  S
C516        H528   1.082       .  S
C517        H529   1.082       .  S
C518        H530   1.082       .  S
C519        C557   1.479       .  S
C520        C637   1.479       .  S
C521        C626   1.479       .  S
C522        C546   1.485       .  S
C533        C534   1.409       .  A
C533        C538   1.399       .  A
C533        H543   1.082       .  S
C534        C535   1.409       .  A
C534        C539   1.493       .  S
C535        C536   1.400       .  A
C535        H540   1.083   1_655  S
C536        C537   1.401       .  A
C536        H541   1.084   1_655  S
C537        C538   1.400       .  A
C538        H542   1.084       .  S
C539        C544   1.408       .  A
C539        C548   1.410   1_655  A
C544        C545   1.400       .  A
C544        H549   1.082       .  S
C545        C546   1.402       .  A
C545        H550   1.083       .  S
C546        C547   1.401   1_655  A
C547        C548   1.400       .  A
C547        H551   1.083       .  S
C548        H552   1.082       .  S
C553        C554   1.404       .  A
C553        C558   1.399       .  A
C553        H563   1.083       .  S
C554        C555   1.407   1_455  A
C554        C559   1.478       .  S
C555        C556   1.394       .  A
C555        H560   1.083       .  S
C556        C557   1.398   1_655  A
C556        H561   1.083       .  S
C557        C558   1.404       .  A
C558        H562   1.083       .  S
C559        C564   1.406       .  A
C559        C568   1.404       .  A
C564        C565   1.400       .  A
C564        H569   1.083       .  S
C565        C566   1.401       .  A
C565        H570   1.084       .  S
C566        C567   1.400       .  A
C567        C568   1.392       .  A
C567        H571   1.084   1_455  S
C568        H572   1.083   1_455  S
C573        C574   1.404       .  A
C573        C578   1.397       .  A
C573        H583   1.083       .  S
C574        C575   1.408       .  A
C574        C579   1.487       .  S
C575        C576   1.404       .  A
C575        H580   1.083       .  S
C576        C577   1.404       .  A
C576        H581   1.083       .  S
C577        C578   1.405       .  A
C578        H582   1.084       .  S
C579        C584   1.405       .  A
C579        C588   1.407       .  A
C584        C585   1.400       .  A
C584        H589   1.083       .  S
C585        C586   1.404       .  A
C585        H590   1.083       .  S
C586        C587   1.405       .  A
C587        C588   1.403       .  A
C587        H591   1.083       .  S
C588        H592   1.083       .  S
C593        C594   1.406       .  A
C593        C598   1.401       .  A
C593        H603   1.083       .  S
C594        C595   1.402       .  A
C594        C599   1.479       .  S
C595        C596   1.394       .  A
C595        H600   1.083       .  S
C596        C597   1.406       .  A
C596        H601   1.083       .  S
C597        C598   1.404       .  A
C598        H602   1.083       .  S
C599        C604   1.405       .  A
C599        C608   1.404       .  A
C604        C605   1.398       .  A
C604        H609   1.083       .  S
C605        C606   1.403       .  A
C605        H610   1.083       .  S
C606        C607   1.403       .  A
C607        C608   1.396       .  A
C607        H611   1.083       .  S
C608        H612   1.083       .  S
C613        C614   1.404       .  A
C613        C618   1.395       .  A
C613        H623   1.083   1_455  S
C614        C615   1.406       .  A
C614        C619   1.477       .  S
C615        C616   1.397       .  A
C615        H620   1.083       .  S
C616        C617   1.399       .  A
C616        H621   1.084       .  S
C617        C618   1.401       .  A
C618        H622   1.084   1_455  S
C619        C624   1.406   1_455  A
C619        C628   1.404       .  A
C624        C625   1.396       .  A
C624        H629   1.083       .  S
C625        C626   1.400   1_655  A
C625        H630   1.083       .  S
C626        C627   1.402       .  A
C627        C628   1.397       .  A
C627        H631   1.083       .  S
C628        H632   1.083       .  S
C633        C634   1.409   1_455  A
C633        C638   1.396       .  A
C633        H643   1.083       .  S
C634        C635   1.406       .  A
C634        C639   1.485       .  S
C635        C636   1.398       .  A
C635        H640   1.083       .  S
C636        C637   1.401       .  A
C636        H641   1.083       .  S
C637        C638   1.399   1_655  A
C638        H642   1.083       .  S
C639        C644   1.407       .  A
C639        C648   1.406       .  A
C644        C645   1.396       .  A
C644        H649   1.083       .  S
C645        C646   1.399       .  A
C645        H650   1.084       .  S
C646        C647   1.401       .  A
C647        C648   1.396       .  A
C647        H651   1.084       .  S
C648        H652   1.083       .  S
C653        C654   1.404       .  A
C653        C658   1.397       .  A
C653        H663   1.083       .  S
C654        C655   1.406       .  A
C654        C659   1.484       .  S
C655        C656   1.403       .  A
C655        H660   1.083       .  S
C656        C657   1.405       .  A
C656        H661   1.083       .  S
C657        C658   1.404       .  A
C658        H662   1.083       .  S
C659        C664   1.404       .  A
C659        C668   1.406       .  A
C664        C665   1.399       .  A
C664        H669   1.083       .  S
C665        C666   1.404       .  A
C665        H670   1.083       .  S
C666        C667   1.405       .  A
C667        C668   1.402       .  A
C667        H671   1.083       .  S
C668        H672   1.083       .  S
C673        C674   1.408       .  A
C673        C678   1.397       .  A
C673        H683   1.083       .  S
C674        C675   1.408       .  A
C674        C679   1.489       .  S
C675        C676   1.399       .  A
C675        H680   1.083       .  S
C676        C677   1.403       .  A
C676        H681   1.083       .  S
C677        C678   1.401       .  A
C678        H682   1.083       .  S
C679        C684   1.405       .  A
C679        C688   1.409       .  A
C684        C685   1.393       .  A
C684        H689   1.082       .  S
C685        C686   1.403       .  A
C685        H690   1.084       .  S
C686        C687   1.404       .  A
C687        C688   1.403       .  A
C687        H691   1.083       .  S
C688        H692   1.083       .  S
C693        C694   1.413       .  A
C693        C698   1.407       .  A
C693        H703   1.082       .  S
C694        C695   1.405   1_655  A
C694        C699   1.498       .  S
C695        C696   1.394       .  A
C695        H700   1.082       .  S
C696        C697   1.406   1_455  A
C696        H701   1.084       .  S
C697        C698   1.402       .  A
C698        H702   1.083       .  S
C699        C704   1.409       .  A
C699        C708   1.412   1_655  A
C704        C705   1.402       .  A
C704        H709   1.082       .  S
C705        C706   1.402       .  A
C705        H710   1.083       .  S
C706        C707   1.400   1_655  A
C707        C708   1.398       .  A
C707        H711   1.083       .  S
C708        H712   1.082       .  S
C713        C714   1.412       .  A
C713        C718   1.410       .  A
C713        H723   1.082       .  S
C714        C715   1.403   1_455  A
C714        C719   1.496       .  S
C715        C716   1.391       .  A
C715        H720   1.083       .  S
C716        C717   1.409   1_655  A
C716        H721   1.083       .  S
C717        C718   1.406       .  A
C718        H722   1.083       .  S
C719        C724   1.409       .  A
C719        C728   1.409   1_455  A
C724        C725   1.405       .  A
C724        H729   1.082       .  S
C725        C726   1.405       .  A
C725        H730   1.083       .  S
C726        C727   1.402   1_455  A
C727        C728   1.396       .  A
C727        H731   1.083       .  S
C728        H732   1.082       .  S
C733        C734   1.409       .  A
C733        C738   1.406       .  A
C733        H743   1.083       .  S
C734        C735   1.409   1_455  A
C734        C739   1.496       .  S
C735        C736   1.398       .  A
C735        H740   1.083       .  S
C736        C737   1.401   1_655  A
C736        H741   1.083       .  S
C737        C738   1.405       .  A
C738        H742   1.083       .  S
C739        C744   1.412       .  A
C739        C748   1.402   1_455  A
C744        C745   1.411       .  A
C744        H749   1.082       .  S
C745        C746   1.406       .  A
C745        H750   1.083       .  S
C746        C747   1.409   1_455  A
C747        C748   1.393       .  A
C747        H751   1.083       .  S
C748        H752   1.083       .  S
C753        C754   1.409       .  A
C753        C758   1.401       .  A
C753        H763   1.082       .  S
C754        C755   1.413   1_655  A
C754        C759   1.500       .  S
C755        C756   1.400       .  A
C755        H760   1.082       .  S
C756        C757   1.400   1_455  A
C756        H761   1.083       .  S
C757        C758   1.404       .  A
C758        H762   1.083       .  S
C759        C764   1.414       .  A
C759        C768   1.407       .  A
C764        C765   1.406       .  A
C764        H769   1.082       .  S
C765        C766   1.401       .  A
C765        H770   1.083       .  S
C766        C767   1.404       .  A
C767        C768   1.397       .  A
C767        H771   1.084   1_655  S
C768        H772   1.082   1_655  S
