geometry optimzed in LAMMPS
_audit_creation_date              2020-11-30 
_audit_creation_method            'lammps2cif' 
_symmetry_space_group_name_H-M    'P1' 
_symmetry_Int_Tables_number       1 
_symmetry_cell_setting            triclinic 
loop_ 
_symmetry_equiv_pos_as_xyz 
  x,y,z 
_cell_length_a                    29.87780116259364 
_cell_length_b                    30.091803511503393 
_cell_length_c                    41.12782153314119 
_cell_angle_alpha                 90.60143001294455 
_cell_angle_beta                  89.7425444812508 
_cell_angle_gamma                 120.82934738067047 
loop_ 
_atom_site_label 
_atom_site_type_symbol 
_atom_site_fract_x 
_atom_site_fract_y 
_atom_site_fract_z 
_atom_site_charge 
C1          C  0.51975973  0.04920470  0.10534582     0.03350
C2          C  0.52188022  0.04920591  0.13934428    -0.12790
C3          C  0.49943280  0.00226672  0.15630636     0.00860
C4          C  0.47595521  0.95529989  0.13872094    -0.11320
C5          C  0.47359086  0.95511901  0.10464723     0.03350
C6          C  0.49531712  0.00223331  0.08812622    -0.10740
H7          H  0.54131046  0.08572731  0.15249478     0.08940
H8          H  0.45823519  0.91888835  0.15155451     0.06470
H9          H  0.49370410  0.00238421  0.06179469     0.06320
C10         C  0.47741584  0.95010069  0.34762290     0.03350
C11         C  0.47812649  0.95108451  0.31361169    -0.12790
C12         C  0.50054085  0.99847694  0.29715185     0.00860
C13         C  0.52114194  0.04482283  0.31528799    -0.11320
C14         C  0.51967822  0.04397668  0.34943328     0.03350
C15         C  0.49845726  0.99640213  0.36537747    -0.10740
H16         H  0.46049213  0.91493168  0.30007876     0.08940
H17         H  0.53796106  0.08151165  0.30284128     0.06470
H18         H  0.49816648  0.99523953  0.39171100     0.06320
Fe19       Fe  0.69794305  0.29664116  0.47567033     1.65780
Fe20       Fe  0.69786647  0.40953745  0.47174476     1.73250
Fe21       Fe  0.58276811  0.29407931  0.47889025     1.54420
O22         O  0.57554175  0.23748173  0.44650374    -0.81450
O23         O  0.65790289  0.41849858  0.00982307    -0.79750
O24         O  0.65477363  0.24963548  0.43728847    -0.83960
O25         O  0.64924374  0.24134222  0.00845696    -0.78810
O26         O  0.57340853  0.33235617  0.44058797    -0.80590
O27         O  0.75483779  0.41862354  0.00432211    -0.83330
C28         C  0.60768630  0.22937315  0.02367494     0.97440
C29         C  0.60609384  0.22641964  0.43161747     1.04870
O30         O  0.65939942  0.33353583  0.47543544    -1.12310
O31         O  0.74250778  0.41100405  0.43285391    -0.74750
O32         O  0.75392137  0.34533441  0.44311200    -0.78230
O33         O  0.58164673  0.25093275  0.01787681    -0.78920
C34         C  0.76562471  0.38618059  0.42777509     0.96340
O35         O  0.74404923  0.34084612  0.01400846    -0.76880
O36         O  0.64614989  0.40981657  0.43880129    -0.82070
C37         C  0.61199478  0.39153641  0.02097707     0.98960
C38         C  0.60010299  0.37779942  0.42935753     1.04880
O39         O  0.58057203  0.34540424  0.01167207    -0.77720
C40         C  0.76673286  0.38931307  0.01934091     1.03180
C41         C  0.52134537  0.48033003  0.10415513     0.03350
C42         C  0.51920900  0.47829420  0.13826146    -0.12790
C43         C  0.49412281  0.49970374  0.15587254     0.00860
C44         C  0.47119975  0.52338492  0.13892678    -0.11320
C45         C  0.47323841  0.52565415  0.10493204     0.03350
C46         C  0.49841970  0.50432273  0.08772981    -0.10740
H47         H  0.53747696  0.46048980  0.15112815     0.08940
H48         H  0.45318111  0.54149542  0.15211758     0.06470
H49         H  0.49968907  0.50600999  0.06139587     0.06320
C50         C  0.51191117  0.46743470  0.34732876     0.03350
C51         C  0.51346731  0.46966344  0.31328836    -0.12790
C52         C  0.49346862  0.49636283  0.29668851     0.00860
C53         C  0.47169032  0.52082423  0.31451400    -0.11320
C54         C  0.46992476  0.51880155  0.34860644     0.03350
C55         C  0.48991601  0.49182535  0.36473658    -0.10740
H56         H  0.52915846  0.44965140  0.29973420     0.08940
H57         H  0.45727459  0.54238861  0.30184864     0.06470
H58         H  0.48870477  0.49008675  0.39106761     0.06320
Fe59       Fe  0.29366834  0.70340949  0.47487620     1.65780
Fe60       Fe  0.29355419  0.59011777  0.47683291     1.73250
Fe61       Fe  0.40879504  0.70584725  0.47798368     1.54420
O62         O  0.41495012  0.75099954  0.43884702    -0.81450
O63         O  0.34330964  0.58604124  0.01011307    -0.79750
O64         O  0.34462469  0.75803749  0.44244736    -0.83960
O65         O  0.33393987  0.75111897  0.01353396    -0.78810
O66         O  0.41528740  0.65583494  0.44623369    -0.80590
O67         O  0.24653222  0.58597297  0.01513040    -0.83330
C68         C  0.38135937  0.77329457  0.02214552     0.97440
C69         C  0.38864971  0.77112508  0.43007658     1.04870
O70         O  0.33205404  0.66646829  0.47663192    -1.12310
O71         O  0.23799111  0.58253287  0.44354870    -0.74750
O72         O  0.24912634  0.66047780  0.43586904    -0.78230
O73         O  0.41302783  0.76116800  0.01027342    -0.78920
C74         C  0.22671285  0.61263268  0.42905316     0.96340
O75         O  0.23723367  0.65377213  0.00704261    -0.76880
O76         O  0.33645596  0.58623786  0.43850534    -0.82070
C77         C  0.38625323  0.61769455  0.02384058     0.98960
C78         C  0.38491023  0.61274351  0.43238136     1.04880
O79         O  0.41190090  0.66539883  0.01698057    -0.77720
C80         C  0.22447085  0.61167587  0.02129930     1.03180
C81         C  0.04212432  0.51739028  0.10369989     0.03350
C82         C  0.99502944  0.49697074  0.08667270    -0.12790
C83         C  0.94730576  0.47464479  0.10320275     0.00860
C84         C  0.94708283  0.47344455  0.13731537    -0.11320
C85         C  0.99408500  0.49392594  0.15474535     0.03350
C86         C  0.04150775  0.51518212  0.13773973    -0.10740
H87         H  0.99562407  0.49840849  0.06033027     0.08940
H88         H  0.91048847  0.45720609  0.15033244     0.06470
H89         H  0.07795225  0.53193940  0.15100831     0.06320
C90         C  0.04525995  0.52111102  0.34605370     0.03350
C91         C  0.99850118  0.49891774  0.36351012    -0.12790
C92         C  0.95043281  0.47611925  0.34725686     0.00860
C93         C  0.94961918  0.47651360  0.31312700    -0.11320
C94         C  0.99636536  0.49799041  0.29536388     0.03350
C95         C  0.04417081  0.52062110  0.31202390    -0.10740
H96         H  0.99965060  0.49976831  0.38985884     0.08940
H97         H  0.91263154  0.45855030  0.30039271     0.06470
H98         H  0.08043913  0.53778124  0.29855579     0.06320
C99         C  0.99388258  0.49450642  0.19076175    -0.05240
C100        C  0.01897169  0.47327055  0.20785059    -0.32670
C101        C  0.01949195  0.47367294  0.24188464     0.36580
C102        C  0.99525071  0.49613533  0.25938364    -0.05600
C103        C  0.96992766  0.51713201  0.24232154    -0.32570
C104        C  0.96945888  0.51679673  0.20828157     0.36490
H105        H  0.03768874  0.45577300  0.19473027     0.16860
O106        O  0.04325379  0.45145591  0.25783969    -0.60070
H107        H  0.95136045  0.53476487  0.25546008     0.16870
O108        O  0.94599091  0.53934085  0.19236370    -0.60160
H109        H  0.97442690  0.57519347  0.18786612     0.43870
H110        H  0.01491571  0.41567575  0.26261834     0.43820
C111        C  0.18409556  0.59044517  0.40439471    -0.05240
C112        C  0.15525753  0.53649243  0.39913495    -0.32670
C113        C  0.11105303  0.51373898  0.37917790     0.36580
C114        C  0.09508613  0.54479026  0.36383139    -0.05600
C115        C  0.12474844  0.59859143  0.36762957    -0.32570
C116        C  0.16872866  0.62157132  0.38784614     0.36490
H117        H  0.16585934  0.51147702  0.41135080     0.16860
O118        O  0.08257848  0.46091193  0.37572286    -0.60070
H119        H  0.11260656  0.62274843  0.35583601     0.16870
O120        O  0.19565236  0.67437385  0.39160715    -0.60160
H121        H  0.17636648  0.68155849  0.40852674     0.43870
H122        H  0.09534271  0.45338453  0.35530191     0.43820
C123        C  0.18072848  0.59093336  0.04502203    -0.05240
C124        C  0.17108645  0.54959758  0.06541373    -0.32670
C125        C  0.12717671  0.52649523  0.08573561     0.36580
C126        C  0.09169618  0.54404641  0.08548232    -0.05600
C127        C  0.10182858  0.58595299  0.06588744    -0.32570
C128        C  0.14590677  0.60967233  0.04605100     0.36490
H129        H  0.19703287  0.53439856  0.06517427     0.16860
O130        O  0.11754741  0.48479459  0.10417556    -0.60070
H131        H  0.07476343  0.59983677  0.06554583     0.16870
O132        O  0.15272131  0.64927529  0.02645056    -0.60160
H133        H  0.17140160  0.68096504  0.04012458     0.43870
H134        H  0.13794150  0.49981630  0.12442257     0.43820
C135        C  0.44887062  0.54588427  0.36794023    -0.05240
C136        C  0.47805787  0.57724882  0.39427804    -0.32670
C137        C  0.45789552  0.59982047  0.41490655     0.36580
C138        C  0.40771592  0.59175902  0.40930567    -0.05600
C139        C  0.37866101  0.56102266  0.38266571    -0.32570
C140        C  0.39910230  0.53853583  0.36183929     0.36490
H141        H  0.51643325  0.58344207  0.39931760     0.16860
O142        O  0.48675046  0.62779179  0.44137239    -0.60070
H143        H  0.33985056  0.55401636  0.37815696     0.16870
O144        O  0.36894671  0.50694633  0.33685363    -0.60160
H145        H  0.37061123  0.53067681  0.31970111     0.43870
H146        H  0.47617656  0.60222589  0.45911383     0.43820
C147        C  0.45057036  0.55168363  0.08702064    -0.05240
C148        C  0.48355597  0.59625269  0.06931767    -0.32670
C149        C  0.46310941  0.61942838  0.04984073     0.36580
C150        C  0.40861154  0.59756779  0.04750164    -0.05600
C151        C  0.37565368  0.55338191  0.06582581    -0.32570
C152        C  0.39636753  0.53085299  0.08582550     0.36490
H153        H  0.52537829  0.61256018  0.07012074     0.16860
O154        O  0.49674909  0.66226608  0.03221495    -0.60070
H155        H  0.33373014  0.53584434  0.06427776     0.16870
O156        O  0.36329512  0.48683136  0.10263570    -0.60160
H157        H  0.35738475  0.49920819  0.12375609     0.43870
H158        H  0.50523375  0.64864693  0.51256254     0.43820
C159        C  0.49351559  0.49884830  0.19197252    -0.05240
C160        C  0.53984137  0.51383643  0.20905513    -0.32670
C161        C  0.54043232  0.51323095  0.24309611     0.36580
C162        C  0.49425117  0.49782173  0.26067961    -0.05600
C163        C  0.44801249  0.48311328  0.24366536    -0.32570
C164        C  0.44733005  0.48346208  0.20962010     0.36490
H165        H  0.57593162  0.52668468  0.19596205     0.16860
O166        O  0.58673825  0.52995074  0.25901147    -0.60070
H167        H  0.41201602  0.47043377  0.25684066     0.16870
O168        O  0.40085691  0.46621040  0.19379052    -0.60160
H169        H  0.39220385  0.49360977  0.19723286     0.43870
H170        H  0.59427446  0.50166190  0.25627938     0.43820
C171        C  0.59318459  0.41567382  0.04456349    -0.05240
C172        C  0.55801740  0.38580399  0.06911060    -0.32670
C173        C  0.53587813  0.40691401  0.08962592     0.36580
C174        C  0.54803079  0.45833592  0.08528195    -0.05600
C175        C  0.58392591  0.48838142  0.06111465    -0.32570
C176        C  0.60633629  0.46750848  0.04084629     0.36490
H177        H  0.54699077  0.34570649  0.07204497     0.16860
O178        O  0.49980440  0.37598129  0.11233909    -0.60070
H179        H  0.59378492  0.52800466  0.05745456     0.16870
O180        O  0.63907249  0.49741532  0.51643186    -0.60160
H181        H  0.61625466  0.49007216  0.49721806     0.43870
H182        H  0.52033999  0.37338591  0.13031741     0.43820
C183        C  0.53332147  0.44002682  0.36523655    -0.05240
C184        C  0.50213644  0.40286575  0.38834512    -0.32670
C185        C  0.52290395  0.38059999  0.40835810     0.36580
C186        C  0.57582687  0.39545171  0.40549600    -0.05600
C187        C  0.60670126  0.43166512  0.38176985    -0.32570
C188        C  0.58567316  0.45354698  0.36149470     0.36490
H189        H  0.46180597  0.39217151  0.39151844     0.16860
O190        O  0.49180227  0.34649822  0.43181462    -0.60070
H191        H  0.64757257  0.44392587  0.37944039     0.16870
O192        O  0.61751235  0.49083390  0.33977145    -0.60160
H193        H  0.61970258  0.47157203  0.32071591     0.43870
H194        H  0.49690577  0.36811317  0.45141621     0.43820
C195        C  0.90129802  0.45081261  0.36615740    -0.05240
C196        C  0.86369760  0.46496833  0.36157355    -0.32670
C197        C  0.81843510  0.44339473  0.38070605     0.36580
C198        C  0.81001959  0.40661544  0.40467676    -0.05600
C199        C  0.84692059  0.39122785  0.40820925    -0.32570
C200        C  0.89229450  0.41324927  0.38948751     0.36490
H201        H  0.87008035  0.49378029  0.34365139     0.16860
O202        O  0.78324391  0.45912916  0.37603653    -0.60070
H203        H  0.84154996  0.36301849  0.42632262     0.16870
O204        O  0.92718771  0.39694599  0.39364317    -0.60160
H205        H  0.94477046  0.41226010  0.41468847     0.43870
H206        H  0.75774730  0.43412726  0.36008538     0.43820
C207        C  0.81031230  0.41292094  0.04300249    -0.05240
C208        C  0.81287665  0.38288329  0.06807143    -0.32670
C209        C  0.85624025  0.40312496  0.08880197     0.36580
C210        C  0.89829266  0.45392551  0.08434536    -0.05600
C211        C  0.89509682  0.48436107  0.05988813    -0.32570
C212        C  0.85185110  0.46434452  0.03928370     0.36490
H213        H  0.78161322  0.34320898  0.07124602     0.16860
O214        O  0.85871869  0.37182424  0.11184210    -0.60070
H215        H  0.92700789  0.52359634  0.05620213     0.16870
O216        O  0.85182228  0.49478841  0.51468985    -0.60160
H217        H  0.86776714  0.48729136  0.49580391     0.43870
H218        H  0.83580325  0.37059975  0.12976023     0.43820
C219        C  0.41056124  0.81304853  0.40550725    -0.05240
C220        C  0.37956084  0.83248299  0.39407077    -0.32670
C221        C  0.40058557  0.87591311  0.37409533     0.36580
C222        C  0.45325826  0.90071423  0.36509197    -0.05600
C223        C  0.48397685  0.88062265  0.37518955    -0.32570
C224        C  0.46315567  0.83716976  0.39527294     0.36490
H225        H  0.33914503  0.81495507  0.40135935     0.16860
O226        O  0.37001675  0.89538614  0.36476809    -0.60070
H227        H  0.52471908  0.89974780  0.36834810     0.16870
O228        O  0.49510966  0.81976663  0.40543361    -0.60160
H229        H  0.51311701  0.84086876  0.42501498     0.43870
H230        H  0.35606500  0.87961729  0.34311446     0.43820
C231        C  0.54034409  0.09255507  0.36866739    -0.05240
C232        C  0.59094272  0.13413626  0.36284327    -0.32670
C233        C  0.61248363  0.17886878  0.38237021     0.36580
C234        C  0.58318690  0.18264753  0.40810957    -0.05600
C235        C  0.53172516  0.14200244  0.41284887    -0.32570
C236        C  0.51044620  0.09712200  0.39362665     0.36490
H237        H  0.61437018  0.13133903  0.34365382     0.16860
O238        O  0.66235046  0.21829291  0.37629798    -0.60070
H239        H  0.50830541  0.14410817  0.43232071     0.16870
O240        O  0.45997042  0.05827474  0.39896672    -0.60160
H241        H  0.46067249  0.04238502  0.41984326     0.43870
H242        H  0.65844426  0.24207239  0.36165666     0.43820
C243        C  0.44738093  0.90593300  0.08600352    -0.05240
C244        C  0.40552564  0.89531356  0.06560656    -0.32670
C245        C  0.38210811  0.85091897  0.04590962     0.36580
C246        C  0.40129886  0.81673177  0.04581554    -0.05600
C247        C  0.44280395  0.82704586  0.06663838    -0.32570
C248        C  0.46536739  0.87093351  0.08696359     0.36490
H249        H  0.39145467  0.92207154  0.06459262     0.16860
O250        O  0.34293065  0.84333565  0.02515799    -0.60070
H251        H  0.45827895  0.80141882  0.06681775     0.16870
O252        O  0.50701542  0.88099380  0.10615815    -0.60160
H253        H  0.49153352  0.86025225  0.12604457     0.43870
H254        H  0.31062653  0.82580464  0.03832814     0.43820
C255        C  0.58762431  0.18689994  0.04783264    -0.05240
C256        C  0.53595441  0.16440582  0.05908403    -0.32670
C257        C  0.51396984  0.12039646  0.07867878     0.36580
C258        C  0.54358753  0.09824328  0.08746105    -0.05600
C259        C  0.59555710  0.12142268  0.07751149    -0.32570
C260        C  0.61770257  0.16529842  0.05780491     0.36490
H261        H  0.51179102  0.17979501  0.05178614     0.16860
O262        O  0.46283620  0.09801403  0.08801807    -0.60070
H263        H  0.61866479  0.10462138  0.08438223     0.16870
O264        O  0.66870313  0.18648516  0.04840060    -0.60160
H265        H  0.66792428  0.16486824  0.02978288     0.43870
H266        H  0.46390788  0.11232774  0.11002713     0.43820
C267        C  0.50026970  0.00210847  0.19236150    -0.05240
C268        C  0.51777580  0.97294199  0.20850611    -0.32670
C269        C  0.51824176  0.97150949  0.24254239     0.36580
C270        C  0.50098962  0.99957950  0.26106106    -0.05600
C271        C  0.48357031  0.02881879  0.24488028    -0.32570
C272        C  0.48320066  0.03032214  0.21085987     0.36490
H273        H  0.53169189  0.95158921  0.19465428     0.16860
O274        O  0.53782094  0.94448862  0.25750367    -0.60070
H275        H  0.46934798  0.04995175  0.25867514     0.16870
O276        O  0.46359949  0.05731706  0.19589031    -0.60160
H277        H  0.49067910  0.09433292  0.19868081     0.43830
H278        H  0.51123146  0.90744641  0.25412113     0.43820
C279        C  0.51975975  0.04920469  0.60534581     0.03350
C280        C  0.52188024  0.04920590  0.63934427    -0.12790
C281        C  0.49943282  0.00226672  0.65630635     0.00860
C282        C  0.47595523  0.95529988  0.63872094    -0.11320
C283        C  0.47359088  0.95511901  0.60464722     0.03350
C284        C  0.49531714  0.00223331  0.58812621    -0.10740
H285        H  0.54131048  0.08572730  0.65249477     0.08940
H286        H  0.45823521  0.91888834  0.65155451     0.06470
H287        H  0.49370413  0.00238420  0.56179468     0.06320
C288        C  0.47741582  0.95010068  0.84762289     0.03350
C289        C  0.47812649  0.95108451  0.81361168    -0.12790
C290        C  0.50054085  0.99847693  0.79715184     0.00860
C291        C  0.52114193  0.04482283  0.81528798    -0.11320
C292        C  0.51967819  0.04397667  0.84943327     0.03350
C293        C  0.49845723  0.99640212  0.86537746    -0.10740
H294        H  0.46049214  0.91493168  0.80007875     0.08940
H295        H  0.53796104  0.08151165  0.80284127     0.06470
H296        H  0.49816644  0.99523952  0.89171099     0.06320
Fe297      Fe  0.69794302  0.29664114  0.97567032     1.65780
Fe298      Fe  0.69786645  0.40953743  0.97174475     1.73250
Fe299      Fe  0.58276809  0.29407930  0.97889025     1.54420
O300        O  0.57554172  0.23748172  0.94650373    -0.81450
O301        O  0.65790290  0.41849858  0.50982308    -0.79750
O302        O  0.65477360  0.24963546  0.93728847    -0.83960
O303        O  0.64924377  0.24134223  0.50845696    -0.78810
O304        O  0.57340851  0.33235617  0.94058796    -0.80590
O305        O  0.75483781  0.41862355  0.50432211    -0.83330
C306        C  0.60768633  0.22937316  0.52367494     0.97440
C307        C  0.60609381  0.22641963  0.93161747     1.04870
O308        O  0.65939940  0.33353581  0.97543544    -1.12310
O309        O  0.74250777  0.41100403  0.93285390    -0.74750
O310        O  0.75392134  0.34533438  0.94311200    -0.78230
O311        O  0.58164676  0.25093276  0.51787682    -0.78920
C312        C  0.76562469  0.38618056  0.92777508     0.96340
O313        O  0.74404925  0.34084614  0.51400846    -0.76880
O314        O  0.64614988  0.40981656  0.93880129    -0.82070
C315        C  0.61199479  0.39153642  0.52097708     0.98960
C316        C  0.60010298  0.37779942  0.92935753     1.04880
O317        O  0.58057205  0.34540424  0.51167208    -0.77720
C318        C  0.76673288  0.38931309  0.51934091     1.03180
C319        C  0.52134536  0.48033002  0.60415513     0.03350
C320        C  0.51920898  0.47829419  0.63826146    -0.12790
C321        C  0.49412280  0.49970373  0.65587254     0.00860
C322        C  0.47119974  0.52338490  0.63892677    -0.11320
C323        C  0.47323840  0.52565414  0.60493204     0.03350
C324        C  0.49841969  0.50432272  0.58772981    -0.10740
H325        H  0.53747695  0.46048980  0.65112815     0.08940
H326        H  0.45318109  0.54149541  0.65211758     0.06470
H327        H  0.49968906  0.50600998  0.56139587     0.06320
C328        C  0.51191118  0.46743472  0.84732876     0.03350
C329        C  0.51346731  0.46966346  0.81328836    -0.12790
C330        C  0.49346862  0.49636284  0.79668851     0.00860
C331        C  0.47169032  0.52082425  0.81451400    -0.11320
C332        C  0.46992477  0.51880158  0.84860644     0.03350
C333        C  0.48991602  0.49182538  0.86473658    -0.10740
H334        H  0.52915845  0.44965141  0.79973420     0.08940
H335        H  0.45727459  0.54238862  0.80184864     0.06470
H336        H  0.48870478  0.49008678  0.89106760     0.06320
Fe337      Fe  0.29366834  0.70340949  0.97487620     1.65780
Fe338      Fe  0.29355420  0.59011778  0.97683292     1.73250
Fe339      Fe  0.40879504  0.70584727  0.97798368     1.54420
O340        O  0.41495012  0.75099956  0.93884703    -0.81450
O341        O  0.34330962  0.58604122  0.51011306    -0.79750
O342        O  0.34462469  0.75803749  0.94244736    -0.83960
O343        O  0.33393988  0.75111896  0.51353396    -0.78810
O344        O  0.41528742  0.65583497  0.94623370    -0.80590
O345        O  0.24653220  0.58597296  0.51513040    -0.83330
C346        C  0.38135937  0.77329455  0.52214552     0.97440
C347        C  0.38864970  0.77112509  0.93007658     1.04870
O348        O  0.33205404  0.66646830  0.97663192    -1.12310
O349        O  0.23799112  0.58253287  0.94354871    -0.74750
O350        O  0.24912634  0.66047780  0.93586905    -0.78230
O351        O  0.41302783  0.76116799  0.51027341    -0.78920
C352        C  0.22671286  0.61263268  0.92905317     0.96340
O353        O  0.23723366  0.65377213  0.50704260    -0.76880
O354        O  0.33645598  0.58623787  0.93850535    -0.82070
C355        C  0.38625322  0.61769453  0.52384057     0.98960
C356        C  0.38491024  0.61274353  0.93238137     1.04880
O357        O  0.41190088  0.66539881  0.51698057    -0.77720
C358        C  0.22447084  0.61167587  0.52129930     1.03180
C359        C  0.04212433  0.51739031  0.60369990     0.03350
C360        C  0.99502945  0.49697077  0.58667271    -0.12790
C361        C  0.94730577  0.47464482  0.60320276     0.00860
C362        C  0.94708284  0.47344458  0.63731538    -0.11320
C363        C  0.99408501  0.49392598  0.65474536     0.03350
C364        C  0.04150777  0.51518215  0.63773974    -0.10740
H365        H  0.99562408  0.49840852  0.56033028     0.08940
H366        H  0.91048848  0.45720612  0.65033245     0.06470
H367        H  0.07795226  0.53193943  0.65100832     0.06320
C368        C  0.04525994  0.52111103  0.84605371     0.03350
C369        C  0.99850117  0.49891774  0.86351013    -0.12790
C370        C  0.95043281  0.47611925  0.84725686     0.00860
C371        C  0.94961918  0.47651362  0.81312701    -0.11320
C372        C  0.99636537  0.49799044  0.79536389     0.03350
C373        C  0.04417081  0.52062114  0.81202392    -0.10740
H374        H  0.99965058  0.49976828  0.88985886     0.08940
H375        H  0.91263155  0.45855032  0.80039271     0.06470
H376        H  0.08043914  0.53778129  0.79855580     0.06320
C377        C  0.99388260  0.49450646  0.69076176    -0.05240
C378        C  0.01897171  0.47327060  0.70785060    -0.32670
C379        C  0.01949197  0.47367299  0.74188465     0.36580
C380        C  0.99525072  0.49613538  0.75938365    -0.05600
C381        C  0.96992767  0.51713205  0.74232155    -0.32570
C382        C  0.96945889  0.51679677  0.70828158     0.36490
H383        H  0.03768877  0.45577305  0.69473028     0.16860
O384        O  0.04325381  0.45145596  0.75783970    -0.60070
H385        H  0.95136046  0.53476490  0.75546009     0.16870
O386        O  0.94599092  0.53934089  0.69236371    -0.60160
H387        H  0.97442691  0.57519350  0.68786613     0.43870
H388        H  0.01491573  0.41567580  0.76261835     0.43820
C389        C  0.18409557  0.59044516  0.90439472    -0.05240
C390        C  0.15525743  0.53649239  0.89913504    -0.32670
C391        C  0.11105293  0.51373895  0.87917800     0.36580
C392        C  0.09508612  0.54479025  0.86383141    -0.05600
C393        C  0.12474853  0.59859143  0.86762951    -0.32570
C394        C  0.16872876  0.62157132  0.88784607     0.36490
H395        H  0.16585917  0.51147698  0.91135095     0.16860
O396        O  0.08257829  0.46091189  0.87572303    -0.60070
H397        H  0.11260673  0.62274844  0.85583589     0.16870
O398        O  0.19565256  0.67437386  0.89160700    -0.60160
H399        H  0.17636671  0.68155863  0.90852654     0.43870
H400        H  0.09534248  0.45338437  0.85530211     0.43820
C401        C  0.18072848  0.59093336  0.54502203    -0.05240
C402        C  0.17108643  0.54959757  0.56541372    -0.32670
C403        C  0.12717670  0.52649523  0.58573560     0.36580
C404        C  0.09169618  0.54404643  0.58548233    -0.05600
C405        C  0.10182861  0.58595302  0.56588745    -0.32570
C406        C  0.14590679  0.60967236  0.54605102     0.36490
H407        H  0.19703284  0.53439853  0.56517425     0.16860
O408        O  0.11754738  0.48479458  0.60417555    -0.60070
H409        H  0.07476347  0.59983682  0.56554585     0.16870
O410        O  0.15272134  0.64927533  0.52645058    -0.60160
H411        H  0.17140165  0.68096507  0.54012461     0.43870
H412        H  0.13794147  0.49981628  0.62442255     0.43820
C413        C  0.44887063  0.54588430  0.86794023    -0.05240
C414        C  0.47805789  0.57724886  0.89427803    -0.32670
C415        C  0.45789555  0.59982051  0.91490654     0.36580
C416        C  0.40771593  0.59175904  0.90930567    -0.05600
C417        C  0.37866102  0.56102267  0.88266572    -0.32570
C418        C  0.39910230  0.53853584  0.86183930     0.36490
H419        H  0.51643328  0.58344212  0.89931758     0.16860
O420        O  0.48675050  0.62779185  0.94137238    -0.60070
H421        H  0.33985056  0.55401636  0.87815698     0.16870
O422        O  0.36894671  0.50694632  0.83685364    -0.60160
H423        H  0.37061122  0.53067679  0.81970112     0.43870
H424        H  0.47617662  0.60222595  0.95911381     0.43820
C425        C  0.45057034  0.55168361  0.58702064    -0.05240
C426        C  0.48355596  0.59625267  0.56931767    -0.32670
C427        C  0.46310939  0.61942836  0.54984072     0.36580
C428        C  0.40861152  0.59756776  0.54750163    -0.05600
C429        C  0.37565366  0.55338188  0.56582580    -0.32570
C430        C  0.39636751  0.53085297  0.58582549     0.36490
H431        H  0.52537827  0.61256017  0.57012074     0.16860
O432        O  0.49674907  0.66226606  0.53221494    -0.60070
H433        H  0.33373013  0.53584431  0.56427775     0.16870
O434        O  0.36329510  0.48683134  0.60263569    -0.60160
H435        H  0.35738473  0.49920816  0.62375607     0.43870
H436        H  0.50523376  0.64864695  0.01256254     0.43820
C437        C  0.49351558  0.49884830  0.69197251    -0.05240
C438        C  0.53984137  0.51383643  0.70905512    -0.32670
C439        C  0.54043232  0.51323096  0.74309610     0.36580
C440        C  0.49425116  0.49782174  0.76067961    -0.05600
C441        C  0.44801248  0.48311328  0.74366536    -0.32570
C442        C  0.44733004  0.48346208  0.70962010     0.36490
H443        H  0.57593161  0.52668468  0.69596205     0.16860
O444        O  0.58673824  0.52995075  0.75901147    -0.60070
H445        H  0.41201602  0.47043378  0.75684066     0.16870
O446        O  0.40085690  0.46621040  0.69379052    -0.60160
H447        H  0.39220384  0.49360977  0.69723286     0.43870
H448        H  0.59427445  0.50166191  0.75627938     0.43820
C449        C  0.59318459  0.41567382  0.54456350    -0.05240
C450        C  0.55801739  0.38580398  0.56911060    -0.32670
C451        C  0.53587812  0.40691400  0.58962592     0.36580
C452        C  0.54803079  0.45833591  0.58528196    -0.05600
C453        C  0.58392591  0.48838142  0.56111465    -0.32570
C454        C  0.60633630  0.46750848  0.54084630     0.36490
H455        H  0.54699077  0.34570649  0.57204497     0.16860
O456        O  0.49980438  0.37598128  0.61233908    -0.60070
H457        H  0.59378493  0.52800466  0.55745457     0.16870
O458        O  0.63907247  0.49741532  0.01643185    -0.60160
H459        H  0.61625463  0.49007214  0.99721805     0.43870
H460        H  0.52033996  0.37338590  0.63031741     0.43820
C461        C  0.53332148  0.44002683  0.86523655    -0.05240
C462        C  0.50213644  0.40286576  0.88834511    -0.32670
C463        C  0.52290394  0.38060000  0.90835810     0.36580
C464        C  0.57582686  0.39545172  0.90549600    -0.05600
C465        C  0.60670125  0.43166512  0.88176985    -0.32570
C466        C  0.58567316  0.45354699  0.86149470     0.36490
H467        H  0.46180597  0.39217152  0.89151843     0.16860
O468        O  0.49180226  0.34649822  0.93181461    -0.60070
H469        H  0.64757257  0.44392587  0.87944039     0.16870
O470        O  0.61751235  0.49083391  0.83977145    -0.60160
H471        H  0.61970258  0.47157203  0.82071591     0.43870
H472        H  0.49690576  0.36811318  0.95141620     0.43820
C473        C  0.90129801  0.45081260  0.86615740    -0.05240
C474        C  0.86369757  0.46496831  0.86157355    -0.32670
C475        C  0.81843507  0.44339470  0.88070604     0.36580
C476        C  0.81001957  0.40661541  0.90467675    -0.05600
C477        C  0.84692058  0.39122783  0.90820925    -0.32570
C478        C  0.89229449  0.41324926  0.88948751     0.36490
H479        H  0.87008033  0.49378026  0.84365138     0.16860
O480        O  0.78324388  0.45912912  0.87603652    -0.60070
H481        H  0.84154995  0.36301848  0.92632262     0.16870
O482        O  0.92718770  0.39694599  0.89364318    -0.60160
H483        H  0.94477044  0.41226009  0.91468849     0.43870
H484        H  0.75774727  0.43412721  0.86008537     0.43820
C485        C  0.81031232  0.41292097  0.54300250    -0.05240
C486        C  0.81287667  0.38288331  0.56807143    -0.32670
C487        C  0.85624027  0.40312498  0.58880197     0.36580
C488        C  0.89829267  0.45392554  0.58434538    -0.05600
C489        C  0.89509682  0.48436111  0.55988815    -0.32570
C490        C  0.85185111  0.46434455  0.53928372     0.36490
H491        H  0.78161325  0.34320899  0.57124602     0.16860
O492        O  0.85871872  0.37182426  0.61184210    -0.60070
H493        H  0.92700789  0.52359638  0.55620216     0.16870
O494        O  0.85182228  0.49478838  0.01468983    -0.60160
H495        H  0.86776713  0.48729130  0.99580389     0.43870
H496        H  0.83580329  0.37059977  0.62976024     0.43820
C497        C  0.41056123  0.81304853  0.90550725    -0.05240
C498        C  0.37956084  0.83248304  0.89407080    -0.32670
C499        C  0.40058557  0.87591315  0.87409537     0.36580
C500        C  0.45325824  0.90071422  0.86509197    -0.05600
C501        C  0.48397680  0.88062260  0.87518950    -0.32570
C502        C  0.46315563  0.83716971  0.89527290     0.36490
H503        H  0.33914505  0.81495515  0.90135942     0.16860
O504        O  0.37001677  0.89538623  0.86476817    -0.60070
H505        H  0.52471902  0.89974771  0.86834802     0.16870
O506        O  0.49510960  0.81976653  0.90543352    -0.60160
H507        H  0.51311701  0.84086867  0.92501488     0.43870
H508        H  0.35606497  0.87961739  0.84311454     0.43820
C509        C  0.54034406  0.09255507  0.86866738    -0.05240
C510        C  0.59094269  0.13413625  0.86284326    -0.32670
C511        C  0.61248360  0.17886877  0.88237021     0.36580
C512        C  0.58318687  0.18264752  0.90810956    -0.05600
C513        C  0.53172513  0.14200243  0.91284886    -0.32570
C514        C  0.51044617  0.09712199  0.89362664     0.36490
H515        H  0.61437015  0.13133903  0.84365381     0.16860
O516        O  0.66235043  0.21829290  0.87629798    -0.60070
H517        H  0.50830537  0.14410816  0.93232070     0.16870
O518        O  0.45997039  0.05827473  0.89896670    -0.60160
H519        H  0.46067245  0.04238501  0.91984324     0.43870
H520        H  0.65844423  0.24207238  0.86165665     0.43820
C521        C  0.44738095  0.90593300  0.58600352    -0.05240
C522        C  0.40552564  0.89531354  0.56560657    -0.32670
C523        C  0.38210811  0.85091895  0.54590963     0.36580
C524        C  0.40129887  0.81673176  0.54581554    -0.05600
C525        C  0.44280397  0.82704586  0.56663836    -0.32570
C526        C  0.46536742  0.87093351  0.58696357     0.36490
H527        H  0.39145467  0.92207152  0.56459263     0.16860
O528        O  0.34293063  0.84333562  0.52515802    -0.60070
H529        H  0.45827898  0.80141883  0.56681772     0.16870
O530        O  0.50701547  0.88099381  0.60615812    -0.60160
H531        H  0.49153359  0.86025227  0.62604454     0.43870
H532        H  0.31062652  0.82580460  0.53832817     0.43820
C533        C  0.58762434  0.18689994  0.54783264    -0.05240
C534        C  0.53595446  0.16440585  0.55908406    -0.32670
C535        C  0.51396989  0.12039649  0.57867880     0.36580
C536        C  0.54358756  0.09824327  0.58746104    -0.05600
C537        C  0.59555711  0.12142264  0.57751145    -0.32570
C538        C  0.61770258  0.16529839  0.55780488     0.36490
H539        H  0.51179108  0.17979507  0.55178619     0.16860
O540        O  0.46283626  0.09801409  0.58801812    -0.60070
H541        H  0.61866478  0.10462131  0.58438217     0.16870
O542        O  0.66870313  0.18648509  0.54840054    -0.60160
H543        H  0.66792423  0.16486817  0.52978280     0.43870
H544        H  0.46390798  0.11232781  0.61002718     0.43820
C545        C  0.50026971  0.00210847  0.69236149    -0.05240
C546        C  0.51777582  0.97294199  0.70850610    -0.32670
C547        C  0.51824177  0.97150949  0.74254238     0.36580
C548        C  0.50098963  0.99957950  0.76106105    -0.05600
C549        C  0.48357031  0.02881878  0.74488027    -0.32570
C550        C  0.48320066  0.03032213  0.71085986     0.36490
H551        H  0.53169191  0.95158921  0.69465428     0.16860
O552        O  0.53782096  0.94448863  0.75750366    -0.60070
H553        H  0.46934797  0.04995174  0.75867513     0.16870
O554        O  0.46359950  0.05731704  0.69589029    -0.60160
H555        H  0.49067911  0.09433291  0.69868079     0.43830
H556        H  0.51123148  0.90744642  0.75412113     0.43820
loop_ 
_geom_bond_atom_site_label_1 
_geom_bond_atom_site_label_2 
_geom_bond_distance 
_geom_bond_site_symmetry_2 
_ccdc_geom_bond_type 
C1            C2   1.400       .  A
C1            C6   1.399       .  A
C1          C258   1.472       .  S
C2            C3   1.406       .  A
C2            H7   1.083       .  S
C3            C4   1.407   1_545  A
C3          C267   1.483       .  S
C4            C5   1.403       .  A
C4            H8   1.084       .  S
C5            C6   1.402   1_565  A
C5          C243   1.478       .  S
C6            H9   1.084       .  S
C10          C11   1.399       .  A
C10          C15   1.398       .  A
C10         C222   1.471       .  S
C11          C12   1.406       .  A
C11          H16   1.083       .  S
C12          C13   1.408   1_565  A
C12         C270   1.485       .  S
C13          C14   1.405       .  A
C13          H17   1.084       .  S
C14          C15   1.403   1_545  A
C14         C231   1.483       .  S
C15          H18   1.084       .  S
Fe19         O30   1.967       .  S
Fe19         O32   2.061       .  S
Fe19         O24   2.063       .  S
Fe19        O313   2.062       .  S
Fe19        O303   2.062       .  S
Fe20         O30   1.971       .  S
Fe20         O31   2.064       .  S
Fe20         O36   2.063       .  S
Fe20        O301   2.063       .  S
Fe20        O305   2.074       .  S
Fe21         O30   1.971       .  S
Fe21         O26   2.064       .  S
Fe21         O22   2.074       .  S
Fe21        O317   2.066       .  S
Fe21        O311   2.063       .  S
O22          C29   1.273       .  A
O23        Fe298   2.063   1_554  S
O23          C37   1.269       .  A
O24          C29   1.271       .  A
O25        Fe297   2.062   1_554  S
O25          C28   1.266       .  A
O26          C38   1.269       .  A
O27        Fe298   2.074   1_554  S
O27          C40   1.273       .  A
C28         C255   1.489       .  S
C28          O33   1.267       .  A
C29         C234   1.481       .  S
O31          C34   1.266       .  A
O32          C34   1.267       .  A
O33        Fe299   2.063   1_554  S
C34         C198   1.485       .  S
O35        Fe297   2.062   1_554  S
O35          C40   1.271       .  A
O36          C38   1.269       .  A
C37         C171   1.478       .  S
C37          O39   1.269       .  A
C38         C186   1.478       .  S
O39        Fe299   2.066   1_554  S
C40         C207   1.482       .  S
C41          C42   1.404       .  A
C41          C46   1.403       .  A
C41         C174   1.483       .  S
C42          C43   1.408       .  A
C42          H47   1.083       .  S
C43          C44   1.406       .  A
C43         C159   1.485       .  S
C44          C45   1.400       .  A
C44          H48   1.083       .  S
C45          C46   1.400       .  A
C45         C147   1.475       .  S
C46          H49   1.084       .  S
C50          C51   1.402       .  A
C50          C55   1.401       .  A
C50         C183   1.480       .  S
C51          C52   1.406       .  A
C51          H56   1.083       .  S
C52          C53   1.406       .  A
C52         C162   1.482       .  S
C53          C54   1.404       .  A
C53          H57   1.083       .  S
C54          C55   1.403       .  A
C54         C135   1.483       .  S
C55          H58   1.084       .  S
Fe59         O70   1.966       .  S
Fe59         O72   2.056       .  S
Fe59         O64   2.064       .  S
Fe59        O353   2.065       .  S
Fe59        O343   2.058       .  S
Fe60         O70   1.973       .  S
Fe60         O71   2.075       .  S
Fe60         O76   2.067       .  S
Fe60        O341   2.075       .  S
Fe60        O345   2.068       .  S
Fe61         O70   1.970       .  S
Fe61         O66   2.065       .  S
Fe61         O62   2.063       .  S
Fe61        O357   2.054       .  S
Fe61        O351   2.071       .  S
O62          C69   1.269       .  A
O63        Fe338   2.075   1_554  S
O63          C77   1.271       .  A
O64          C69   1.269       .  A
O65        Fe337   2.058   1_554  S
O65          C68   1.268       .  A
O66          C78   1.270       .  A
O67        Fe338   2.068   1_554  S
O67          C80   1.270       .  A
C68         C246   1.480       .  S
C68          O73   1.270       .  A
C69         C219   1.488       .  S
O71          C74   1.271       .  A
O72          C74   1.267       .  A
O73        Fe339   2.071   1_554  S
C74         C111   1.491       .  S
O75        Fe337   2.065   1_554  S
O75          C80   1.270       .  A
O76          C78   1.270       .  A
C77         C150   1.481       .  S
C77          O79   1.268       .  A
C78         C138   1.479       .  S
O79        Fe339   2.054   1_554  S
C80         C123   1.488       .  S
C81          C82   1.401   1_455  A
C81          C86   1.402       .  A
C81         C126   1.478       .  S
C82          C83   1.402       .  A
C82          H87   1.084       .  S
C83          C84   1.404       .  A
C83         C210   1.483       .  S
C84          C85   1.407       .  A
C84          H88   1.083       .  S
C85          C86   1.406   1_655  A
C85          C99   1.481       .  S
C86          H89   1.084       .  S
C90          C91   1.399   1_455  A
C90          C95   1.400       .  A
C90         C114   1.473       .  S
C91          C92   1.403       .  A
C91          H96   1.084       .  S
C92          C93   1.404       .  A
C92         C195   1.482       .  S
C93          C94   1.406       .  A
C93          H97   1.084       .  S
C94          C95   1.405   1_655  A
C94         C102   1.480       .  S
C95          H98   1.084       .  S
C99         C100   1.403   1_655  A
C99         C104   1.410       .  A
C100        C101   1.400       .  A
C100        H105   1.084       .  S
C101        C102   1.409   1_455  A
C101        O106   1.372       .  S
C102        C103   1.403       .  A
C103        C104   1.400       .  A
C103        H107   1.084       .  S
C104        O108   1.372       .  S
O106        H110   0.992       .  S
O108        H109   0.992       .  S
C111        C112   1.409       .  A
C111        C116   1.417       .  A
C112        C113   1.399       .  A
C112        H117   1.083       .  S
C113        C114   1.404       .  A
C113        O118   1.372       .  S
C114        C115   1.399       .  A
C115        C116   1.401       .  A
C115        H119   1.084       .  S
C116        O120   1.372       .  S
O118        H122   0.992       .  S
O120        H121   0.992       .  S
C123        C124   1.409       .  A
C123        C128   1.415       .  A
C124        C125   1.404       .  A
C124        H129   1.083       .  S
C125        C126   1.406       .  A
C125        O130   1.371       .  S
C126        C127   1.400       .  A
C127        C128   1.396       .  A
C127        H131   1.084       .  S
C128        O132   1.372       .  S
O130        H134   0.992       .  S
O132        H133   0.992       .  S
C135        C136   1.403       .  A
C135        C140   1.410       .  A
C136        C137   1.395       .  A
C136        H141   1.084       .  S
C137        C138   1.410       .  A
C137        O142   1.372       .  S
C138        C139   1.405       .  A
C139        C140   1.404       .  A
C139        H143   1.084       .  S
C140        O144   1.372       .  S
O142        H146   0.992       .  S
O144        H145   0.992       .  S
C147        C148   1.400       .  A
C147        C152   1.406       .  A
C148        C149   1.398       .  A
C148        H153   1.084       .  S
C149        C150   1.413       .  A
C149        O154   1.372       .  S
C150        C151   1.406       .  A
C151        C152   1.402       .  A
C151        H155   1.084       .  S
C152        O156   1.371       .  S
O154        H436   0.992       .  S
O156        H157   0.992       .  S
H158        O432   0.992       .  S
C159        C160   1.405       .  A
C159        C164   1.410       .  A
C160        C161   1.401       .  A
C160        H165   1.084       .  S
C161        C162   1.409       .  A
C161        O166   1.372       .  S
C162        C163   1.403       .  A
C163        C164   1.401       .  A
C163        H167   1.084       .  S
C164        O168   1.372       .  S
O166        H170   0.991       .  S
O168        H169   0.991       .  S
C171        C172   1.405       .  A
C171        C176   1.410       .  A
C172        C173   1.403       .  A
C172        H177   1.084       .  S
C173        C174   1.410       .  A
C173        O178   1.372       .  S
C174        C175   1.404       .  A
C175        C176   1.397       .  A
C175        H179   1.084       .  S
C176        O458   1.372       .  S
O178        H182   0.992       .  S
O180        C454   1.372       .  S
O180        H181   0.992       .  S
C183        C184   1.403       .  A
C183        C188   1.408       .  A
C184        C185   1.398       .  A
C184        H189   1.084       .  S
C185        C186   1.410       .  A
C185        O190   1.372       .  S
C186        C187   1.405       .  A
C187        C188   1.401       .  A
C187        H191   1.084       .  S
C188        O192   1.372       .  S
O190        H194   0.992       .  S
O192        H193   0.992       .  S
C195        C196   1.405       .  A
C195        C200   1.407       .  A
C196        C197   1.404       .  A
C196        H201   1.084       .  S
C197        C198   1.413       .  A
C197        O202   1.371       .  S
C198        C199   1.406       .  A
C199        C200   1.397       .  A
C199        H203   1.083       .  S
C200        O204   1.373       .  S
O202        H206   0.992       .  S
O204        H205   0.993       .  S
C207        C208   1.406       .  A
C207        C212   1.412       .  A
C208        C209   1.402       .  A
C208        H213   1.084       .  S
C209        C210   1.409       .  A
C209        O214   1.372       .  S
C210        C211   1.403       .  A
C211        C212   1.397       .  A
C211        H215   1.084       .  S
C212        O494   1.372       .  S
O214        H218   0.992       .  S
O216        C490   1.372       .  S
O216        H217   0.992       .  S
C219        C220   1.409       .  A
C219        C224   1.416       .  A
C220        C221   1.398       .  A
C220        H225   1.083       .  S
C221        C222   1.403       .  A
C221        O226   1.372       .  S
C222        C223   1.399       .  A
C223        C224   1.401       .  A
C223        H227   1.084       .  S
C224        O228   1.371       .  S
O226        H230   0.992       .  S
O228        H229   0.992       .  S
C231        C232   1.405       .  A
C231        C236   1.409       .  A
C232        C233   1.402       .  A
C232        H237   1.083       .  S
C233        C234   1.411       .  A
C233        O238   1.371       .  S
C234        C235   1.405       .  A
C235        C236   1.398       .  A
C235        H239   1.084       .  S
C236        O240   1.373       .  S
O238        H242   0.992       .  S
O240        H241   0.993       .  S
C243        C244   1.401       .  A
C243        C248   1.407       .  A
C244        C245   1.398       .  A
C244        H249   1.084       .  S
C245        C246   1.411       .  A
C245        O250   1.372       .  S
C246        C247   1.406       .  A
C247        C248   1.402       .  A
C247        H251   1.084       .  S
C248        O252   1.371       .  S
O250        H254   0.991       .  S
O252        H253   0.992       .  S
C255        C256   1.409       .  A
C255        C260   1.416       .  A
C256        C257   1.400       .  A
C256        H261   1.083       .  S
C257        C258   1.404       .  A
C257        O262   1.371       .  S
C258        C259   1.398       .  A
C259        C260   1.400       .  A
C259        H263   1.084       .  S
C260        O264   1.372       .  S
O262        H266   0.992       .  S
O264        H265   0.992       .  S
C267        C268   1.404   1_545  A
C267        C272   1.409       .  A
C268        C269   1.401       .  A
C268        H273   1.084       .  S
C269        C270   1.410       .  A
C269        O274   1.372       .  S
C270        C271   1.405   1_565  A
C271        C272   1.401       .  A
C271        H275   1.084       .  S
C272        O276   1.372       .  S
O274        H278   0.991       .  S
O276        H277   0.991       .  S
C279        C280   1.400       .  A
C279        C284   1.399       .  A
C279        C536   1.472       .  S
C280        C281   1.406       .  A
C280        H285   1.083       .  S
C281        C282   1.407   1_545  A
C281        C545   1.483       .  S
C282        C283   1.403       .  A
C282        H286   1.084       .  S
C283        C284   1.402   1_565  A
C283        C521   1.478       .  S
C284        H287   1.084       .  S
C288        C289   1.399       .  A
C288        C293   1.398       .  A
C288        C500   1.471       .  S
C289        C290   1.406       .  A
C289        H294   1.083       .  S
C290        C291   1.408   1_565  A
C290        C548   1.485       .  S
C291        C292   1.405       .  A
C291        H295   1.084       .  S
C292        C293   1.403   1_545  A
C292        C509   1.483       .  S
C293        H296   1.084       .  S
Fe297       O308   1.967       .  S
Fe297       O310   2.061       .  S
Fe297       O302   2.063       .  S
Fe298       O308   1.971       .  S
Fe298       O309   2.064       .  S
Fe298       O314   2.063       .  S
Fe299       O308   1.971       .  S
Fe299       O304   2.064       .  S
Fe299       O300   2.074       .  S
O300        C307   1.273       .  A
O301        C315   1.269       .  A
O302        C307   1.271       .  A
O303        C306   1.266       .  A
O304        C316   1.269       .  A
O305        C318   1.273       .  A
C306        C533   1.489       .  S
C306        O311   1.267       .  A
C307        C512   1.481       .  S
O309        C312   1.266       .  A
O310        C312   1.267       .  A
C312        C476   1.485       .  S
O313        C318   1.271       .  A
O314        C316   1.269       .  A
C315        C449   1.478       .  S
C315        O317   1.269       .  A
C316        C464   1.478       .  S
C318        C485   1.482       .  S
C319        C320   1.404       .  A
C319        C324   1.403       .  A
C319        C452   1.483       .  S
C320        C321   1.408       .  A
C320        H325   1.083       .  S
C321        C322   1.406       .  A
C321        C437   1.485       .  S
C322        C323   1.400       .  A
C322        H326   1.083       .  S
C323        C324   1.400       .  A
C323        C425   1.475       .  S
C324        H327   1.084       .  S
C328        C329   1.402       .  A
C328        C333   1.401       .  A
C328        C461   1.480       .  S
C329        C330   1.406       .  A
C329        H334   1.083       .  S
C330        C331   1.406       .  A
C330        C440   1.482       .  S
C331        C332   1.404       .  A
C331        H335   1.083       .  S
C332        C333   1.403       .  A
C332        C413   1.483       .  S
C333        H336   1.084       .  S
Fe337       O348   1.966       .  S
Fe337       O350   2.056       .  S
Fe337       O342   2.064       .  S
Fe338       O348   1.973       .  S
Fe338       O349   2.075       .  S
Fe338       O354   2.067       .  S
Fe339       O348   1.970       .  S
Fe339       O344   2.065       .  S
Fe339       O340   2.063       .  S
O340        C347   1.269       .  A
O341        C355   1.271       .  A
O342        C347   1.269       .  A
O343        C346   1.268       .  A
O344        C356   1.270       .  A
O345        C358   1.270       .  A
C346        C524   1.480       .  S
C346        O351   1.270       .  A
C347        C497   1.488       .  S
O349        C352   1.271       .  A
O350        C352   1.267       .  A
C352        C389   1.491       .  S
O353        C358   1.270       .  A
O354        C356   1.270       .  A
C355        C428   1.481       .  S
C355        O357   1.268       .  A
C356        C416   1.479       .  S
C358        C401   1.488       .  S
C359        C360   1.401   1_455  A
C359        C364   1.402       .  A
C359        C404   1.478       .  S
C360        C361   1.402       .  A
C360        H365   1.084       .  S
C361        C362   1.404       .  A
C361        C488   1.483       .  S
C362        C363   1.407       .  A
C362        H366   1.083       .  S
C363        C364   1.406   1_655  A
C363        C377   1.481       .  S
C364        H367   1.084       .  S
C368        C369   1.399   1_455  A
C368        C373   1.400       .  A
C368        C392   1.473       .  S
C369        C370   1.403       .  A
C369        H374   1.084       .  S
C370        C371   1.404       .  A
C370        C473   1.482       .  S
C371        C372   1.406       .  A
C371        H375   1.084       .  S
C372        C373   1.405   1_655  A
C372        C380   1.480       .  S
C373        H376   1.084       .  S
C377        C378   1.403   1_655  A
C377        C382   1.410       .  A
C378        C379   1.400       .  A
C378        H383   1.084       .  S
C379        C380   1.409   1_455  A
C379        O384   1.372       .  S
C380        C381   1.403       .  A
C381        C382   1.400       .  A
C381        H385   1.084       .  S
C382        O386   1.372       .  S
O384        H388   0.992       .  S
O386        H387   0.992       .  S
C389        C390   1.409       .  A
C389        C394   1.417       .  A
C390        C391   1.399       .  A
C390        H395   1.083       .  S
C391        C392   1.404       .  A
C391        O396   1.372       .  S
C392        C393   1.399       .  A
C393        C394   1.401       .  A
C393        H397   1.084       .  S
C394        O398   1.372       .  S
O396        H400   0.992       .  S
O398        H399   0.992       .  S
C401        C402   1.409       .  A
C401        C406   1.415       .  A
C402        C403   1.404       .  A
C402        H407   1.083       .  S
C403        C404   1.406       .  A
C403        O408   1.371       .  S
C404        C405   1.400       .  A
C405        C406   1.396       .  A
C405        H409   1.084       .  S
C406        O410   1.372       .  S
O408        H412   0.992       .  S
O410        H411   0.992       .  S
C413        C414   1.403       .  A
C413        C418   1.410       .  A
C414        C415   1.395       .  A
C414        H419   1.084       .  S
C415        C416   1.410       .  A
C415        O420   1.372       .  S
C416        C417   1.405       .  A
C417        C418   1.404       .  A
C417        H421   1.084       .  S
C418        O422   1.372       .  S
O420        H424   0.992       .  S
O422        H423   0.992       .  S
C425        C426   1.400       .  A
C425        C430   1.406       .  A
C426        C427   1.398       .  A
C426        H431   1.084       .  S
C427        C428   1.413       .  A
C427        O432   1.372       .  S
C428        C429   1.406       .  A
C429        C430   1.402       .  A
C429        H433   1.084       .  S
C430        O434   1.371       .  S
O434        H435   0.992       .  S
C437        C438   1.405       .  A
C437        C442   1.410       .  A
C438        C439   1.401       .  A
C438        H443   1.084       .  S
C439        C440   1.409       .  A
C439        O444   1.372       .  S
C440        C441   1.403       .  A
C441        C442   1.401       .  A
C441        H445   1.084       .  S
C442        O446   1.372       .  S
O444        H448   0.991       .  S
O446        H447   0.991       .  S
C449        C450   1.405       .  A
C449        C454   1.410       .  A
C450        C451   1.403       .  A
C450        H455   1.084       .  S
C451        C452   1.410       .  A
C451        O456   1.372       .  S
C452        C453   1.404       .  A
C453        C454   1.397       .  A
C453        H457   1.084       .  S
O456        H460   0.992       .  S
O458        H459   0.992   1_554  S
C461        C462   1.403       .  A
C461        C466   1.408       .  A
C462        C463   1.398       .  A
C462        H467   1.084       .  S
C463        C464   1.410       .  A
C463        O468   1.372       .  S
C464        C465   1.405       .  A
C465        C466   1.401       .  A
C465        H469   1.084       .  S
C466        O470   1.372       .  S
O468        H472   0.992       .  S
O470        H471   0.992       .  S
C473        C474   1.405       .  A
C473        C478   1.407       .  A
C474        C475   1.404       .  A
C474        H479   1.084       .  S
C475        C476   1.413       .  A
C475        O480   1.371       .  S
C476        C477   1.406       .  A
C477        C478   1.397       .  A
C477        H481   1.083       .  S
C478        O482   1.373       .  S
O480        H484   0.992       .  S
O482        H483   0.993       .  S
C485        C486   1.406       .  A
C485        C490   1.412       .  A
C486        C487   1.402       .  A
C486        H491   1.084       .  S
C487        C488   1.409       .  A
C487        O492   1.372       .  S
C488        C489   1.403       .  A
C489        C490   1.397       .  A
C489        H493   1.084       .  S
O492        H496   0.992       .  S
O494        H495   0.992   1_554  S
C497        C498   1.409       .  A
C497        C502   1.416       .  A
C498        C499   1.398       .  A
C498        H503   1.083       .  S
C499        C500   1.403       .  A
C499        O504   1.372       .  S
C500        C501   1.399       .  A
C501        C502   1.401       .  A
C501        H505   1.084       .  S
C502        O506   1.371       .  S
O504        H508   0.992       .  S
O506        H507   0.992       .  S
C509        C510   1.405       .  A
C509        C514   1.409       .  A
C510        C511   1.402       .  A
C510        H515   1.083       .  S
C511        C512   1.411       .  A
C511        O516   1.371       .  S
C512        C513   1.405       .  A
C513        C514   1.398       .  A
C513        H517   1.084       .  S
C514        O518   1.373       .  S
O516        H520   0.992       .  S
O518        H519   0.993       .  S
C521        C522   1.401       .  A
C521        C526   1.407       .  A
C522        C523   1.398       .  A
C522        H527   1.084       .  S
C523        C524   1.411       .  A
C523        O528   1.372       .  S
C524        C525   1.406       .  A
C525        C526   1.402       .  A
C525        H529   1.084       .  S
C526        O530   1.371       .  S
O528        H532   0.991       .  S
O530        H531   0.992       .  S
C533        C534   1.409       .  A
C533        C538   1.416       .  A
C534        C535   1.400       .  A
C534        H539   1.083       .  S
C535        C536   1.404       .  A
C535        O540   1.371       .  S
C536        C537   1.398       .  A
C537        C538   1.400       .  A
C537        H541   1.084       .  S
C538        O542   1.372       .  S
O540        H544   0.992       .  S
O542        H543   0.992       .  S
C545        C546   1.404   1_545  A
C545        C550   1.409       .  A
C546        C547   1.401       .  A
C546        H551   1.084       .  S
C547        C548   1.410       .  A
C547        O552   1.372       .  S
C548        C549   1.405   1_565  A
C549        C550   1.401       .  A
C549        H553   1.084       .  S
C550        O554   1.372       .  S
O552        H556   0.991       .  S
O554        H555   0.991       .  S
