geometry optimzed in LAMMPS
_audit_creation_date              2020-11-30 
_audit_creation_method            'lammps2cif' 
_symmetry_space_group_name_H-M    'P1' 
_symmetry_Int_Tables_number       1 
_symmetry_cell_setting            triclinic 
loop_ 
_symmetry_equiv_pos_as_xyz 
  x,y,z 
_cell_length_a                    40.41683896089141 
_cell_length_b                    40.41381063754333 
_cell_length_c                    32.39042990310398 
_cell_angle_alpha                 89.64559001323124 
_cell_angle_beta                  90.22878045612245 
_cell_angle_gamma                 120.14641486479098 
loop_ 
_atom_site_label 
_atom_site_type_symbol 
_atom_site_fract_x 
_atom_site_fract_y 
_atom_site_fract_z 
_atom_site_charge 
C1          C  0.18734547  0.09064429  0.97622311     0.02020
C2          C  0.20762640  0.13066645  0.97890961    -0.14130
C3          C  0.24769800  0.15079401  0.97726002    -0.00480
C4          C  0.26750738  0.13062423  0.97587058    -0.12660
C5          C  0.24753035  0.09042927  0.97531623     0.02010
C6          C  0.20733458  0.07063717  0.97483411    -0.12080
H7          H  0.19226773  0.14623575  0.97704522     0.07600
H8          H  0.29842719  0.14638633  0.97332279     0.05130
H9          H  0.19150749  0.03978985  0.97154286     0.04980
C10         C  0.18778678  0.09145400  0.35913348     0.02020
C11         C  0.20807224  0.13150231  0.35646272    -0.14130
C12         C  0.24814454  0.15160876  0.35816848    -0.00480
C13         C  0.26794480  0.13141657  0.35959552    -0.12660
C14         C  0.24796380  0.09121569  0.36012743     0.02010
C15         C  0.20776948  0.07142402  0.36055123    -0.12080
H16         H  0.19272115  0.14705992  0.35830679     0.07600
H17         H  0.29886650  0.14715108  0.36218376     0.05130
H18         H  0.19194276  0.04054646  0.36383619     0.04980
C19         C  0.15461098  0.24425973  0.85876470     0.02020
C20         C  0.13464136  0.26429685  0.86007582    -0.14130
C21         C  0.09444270  0.24452067  0.85973198    -0.00480
C22         C  0.07444950  0.20431766  0.85936634    -0.12660
C23         C  0.09423335  0.18412241  0.85804211     0.02010
C24         C  0.13430007  0.20422499  0.85626133    -0.12080
H25         H  0.15048576  0.29515517  0.86324653     0.07600
H26         H  0.04353682  0.18857283  0.86200833     0.05130
H27         H  0.14964523  0.18864450  0.85817734     0.04980
C28         C  0.15534428  0.24403700  0.47667052     0.02020
C29         C  0.13537773  0.26409046  0.47532562    -0.14130
C30         C  0.09518061  0.24431926  0.47572189    -0.00380
C31         C  0.07517889  0.20411500  0.47618278    -0.12660
C32         C  0.09495634  0.18390005  0.47753796     0.02010
C33         C  0.13503044  0.20398283  0.47926316    -0.12080
H34         H  0.15121777  0.29497130  0.47208554     0.07600
H35         H  0.04425823  0.18839718  0.47357755     0.05130
H36         H  0.15036290  0.18840975  0.47736619     0.04980
N37         N  0.31831846  0.32140104  0.01864980    -0.07230
N38         N  0.31140471  0.30602782  0.05596402    -0.59350
N39         N  0.31337371  0.05737791  0.96735569    -0.06910
N40         N  0.30714156  0.08636953  0.97009779    -0.61480
N41         N  0.28082519  0.02472686  0.96765682    -0.06510
N42         N  0.25173289  0.03081084  0.97058295    -0.59330
N43         N  0.01752589  0.02078964  0.01827378    -0.06190
N44         N  0.03329392  0.02826996  0.05531094    -0.61830
C45         C  0.00860473  0.33121451  0.07852456     0.94950
C46         C  0.26856822  0.06940091  0.97207147     0.94720
N47         N  0.06268921  0.08662097  0.87474341    -0.07420
N48         N  0.07800563  0.11618215  0.84907574    -0.59930
N49         N  0.09011571  0.05991785  0.95916756    -0.05540
N50         N  0.11955641  0.07497455  0.98486061    -0.61180
N51         N  0.09921253  0.04887633  0.92501408    -0.07450
N52         N  0.13456377  0.05540479  0.92710398    -0.60200
N53         N  0.05162463  0.09569377  0.90889886    -0.05180
N54         N  0.05836729  0.13111790  0.90682172    -0.61270
Mn55       Mn  0.03523440  0.05915717  0.96414013     1.18440
C56         C  0.07425745  0.14338761  0.86921575     0.97030
C57         C  0.14673426  0.07113914  0.96472991     0.97690
N58         N  0.24267620  0.28602276  0.91009453    -0.07470
N59         N  0.20735845  0.27957186  0.90788303    -0.63770
N60         N  0.29034583  0.23922952  0.92650687    -0.06270
N61         N  0.28368752  0.20384210  0.92863095    -0.64450
N62         N  0.27910644  0.24826160  0.96055941    -0.06970
N63         N  0.26375763  0.21869350  0.98621972    -0.64040
N64         N  0.25178523  0.27484819  0.87605370    -0.05870
N65         N  0.22238716  0.25979193  0.85029940    -0.64730
Mn66       Mn  0.27949436  0.30301056  0.96499689     1.10660
C67         C  0.19522002  0.26375773  0.87028567     0.98250
C68         C  0.26766940  0.19154018  0.96617015     0.98330
N69         N  0.06107492  0.31019312  0.86744190    -0.06980
N70         N  0.09019196  0.30415084  0.86436810    -0.62350
N71         N  0.32427555  0.31378942  0.81715093    -0.06300
N72         N  0.30862665  0.30565588  0.78010518    -0.59080
N73         N  0.02322217  0.01344567  0.81658761    -0.07610
N74         N  0.02996287  0.02851234  0.77908850    -0.61920
N75         N  0.02856656  0.27750738  0.86797001    -0.06600
N76         N  0.03483763  0.24854557  0.86519534    -0.59110
Mn77       Mn  0.06228481  0.03189890  0.87016139     1.20190
Mn78       Mn  0.30670189  0.27564666  0.87126067     1.10090
Cl79       Cl  0.00427196  0.00076672  0.91764458    -0.87080
C80         C  0.07340035  0.26555301  0.86299807     0.95260
C81         C  0.33292345  0.00271445  0.75677066     0.95050
N82         N  0.09981034  0.04930016  0.41042659    -0.07230
N83         N  0.13513093  0.05578440  0.40827240    -0.59350
N84         N  0.05219657  0.09592550  0.42670007    -0.06910
N85         N  0.05892096  0.13132059  0.42881024    -0.61480
N86         N  0.06339093  0.08655180  0.46081157    -0.06510
N87         N  0.07877903  0.11588138  0.48648274    -0.59330
N88         N  0.09063968  0.06069405  0.37631771    -0.06190
N89         N  0.11999931  0.07594681  0.35058130    -0.61830
C90         C  0.14720537  0.07186569  0.37064777     0.94950
C91         C  0.07493793  0.14325764  0.46639105     0.94720
N92         N  0.28131641  0.02547528  0.36778892    -0.07420
N93         N  0.25220312  0.03156053  0.36482069    -0.59930
N94         N  0.01801649  0.02218204  0.31726292    -0.05540
N95         N  0.03390812  0.03009141  0.28033910    -0.61180
N96         N  0.31886500  0.32274619  0.31673701    -0.07450
N97         N  0.31213194  0.30775328  0.27939193    -0.60200
N98         N  0.31384800  0.05813927  0.36819708    -0.05180
N99         N  0.30758593  0.08713827  0.36547355    -0.61270
Mn100      Mn  0.03573718  0.05995296  0.37142071     1.18440
C101        C  0.26901250  0.07016530  0.36340977     0.97030
C102        C  0.00935544  0.33331192  0.25698162     0.97690
N103        N  0.02418663  0.01280836  0.51891679    -0.07470
N104        N  0.03112446  0.02742757  0.55647724    -0.63770
N105        N  0.02930609  0.27738857  0.46739737    -0.06270
N106        N  0.03557403  0.24839858  0.47019587    -0.64450
N107        N  0.06182049  0.31006622  0.46792526    -0.06970
N108        N  0.09093700  0.30399129  0.47102433    -0.64040
N109        N  0.32518580  0.31320459  0.51830616    -0.05870
N110        N  0.30966778  0.30467970  0.55537337    -0.64730
Mn111      Mn  0.06303540  0.03179469  0.46529215     1.10660
C112        C  0.33421764  0.00132833  0.57881295     0.98250
C113        C  0.07413977  0.26538201  0.47240595     0.98330
N114        N  0.27967007  0.24896570  0.37481740    -0.06980
N115        N  0.26423525  0.21960855  0.34918057    -0.62350
N116        N  0.25249567  0.27479455  0.45935326    -0.06300
N117        N  0.22315069  0.25951502  0.48511515    -0.59080
N118        N  0.24329964  0.28622553  0.42528840    -0.07610
N119        N  0.20797814  0.27973627  0.42749827    -0.61920
N120        N  0.29094909  0.23962433  0.40888721    -0.06600
N121        N  0.28424113  0.20423758  0.40679005    -0.59110
Mn122      Mn  0.28004338  0.30375472  0.37038446     1.20190
Mn123      Mn  0.30743542  0.27555872  0.46414363     1.10090
Cl124      Cl  0.00489660  0.00110139  0.41780994    -0.87080
C125        C  0.26814367  0.19226131  0.36925586     0.95260
C126        C  0.19592619  0.26361715  0.46511269     0.95050
C127        C  0.33094928  0.00309579  0.71129861    -0.06580
C128        C  0.98301854  0.30167355  0.69016589    -0.34010
C129        C  0.98383482  0.30087352  0.64712535     0.35240
C130        C  0.33193217  0.00184118  0.62425365    -0.06940
C131        C  0.34609843  0.03666412  0.64529461    -0.33910
C132        C  0.34549882  0.03742834  0.68859036     0.35150
H133        H  0.97233911  0.27503575  0.70711377     0.15520
O134        O  0.97170271  0.26650865  0.62786776    -0.61400
H135        H  0.35760527  0.06327402  0.62813801     0.15530
O136        O  0.35914567  0.07177748  0.70835553    -0.61500
H137        H  0.33640268  0.07457180  0.71279963     0.42530
H138        H  0.99494466  0.26427752  0.62508856     0.42480
C139        C  0.01142191  0.32943718  0.12408587    -0.06580
C140        C  0.03907561  0.02853301  0.14528654    -0.34010
C141        C  0.03976544  0.02970846  0.18845270     0.35240
C142        C  0.01234944  0.33137540  0.21149729    -0.06940
C143        C  0.31914148  0.29827111  0.19033328    -0.33910
C144        C  0.31863389  0.29703533  0.14710187     0.35150
H145        H  0.05955074  0.05377839  0.12840026     0.15520
O146        O  0.06608279  0.06284462  0.20752240    -0.61400
H147        H  0.29805817  0.27342959  0.20729911     0.15530
O148        O  0.29164269  0.26438440  0.12782105    -0.61500
H149        H  0.30423255  0.24902971  0.12337778     0.42530
H150        H  0.08919645  0.06047614  0.21099695     0.42480
C151        C  0.18734547  0.42397763  0.97622311     0.02020
C152        C  0.20762640  0.46399979  0.97890960    -0.14130
C153        C  0.24769800  0.48412734  0.97726002    -0.00480
C154        C  0.26750737  0.46395756  0.97587058    -0.12660
C155        C  0.24753035  0.42376260  0.97531623     0.02010
C156        C  0.20733458  0.40397051  0.97483411    -0.12080
H157        H  0.19226773  0.47956908  0.97704521     0.07600
H158        H  0.29842719  0.47971966  0.97332279     0.05130
H159        H  0.19150749  0.37312318  0.97154286     0.04980
C160        C  0.18778677  0.42478733  0.35913348     0.02020
C161        C  0.20807224  0.46483564  0.35646272    -0.14130
C162        C  0.24814454  0.48494209  0.35816848    -0.00480
C163        C  0.26794480  0.46474990  0.35959553    -0.12660
C164        C  0.24796380  0.42454902  0.36012743     0.02010
C165        C  0.20776947  0.40475735  0.36055123    -0.12080
H166        H  0.19272115  0.48039325  0.35830679     0.07600
H167        H  0.29886650  0.48048441  0.36218376     0.05130
H168        H  0.19194276  0.37387980  0.36383619     0.04980
C169        C  0.15461099  0.57759307  0.85876470     0.02020
C170        C  0.13464136  0.59763019  0.86007582    -0.14130
C171        C  0.09444270  0.57785400  0.85973198    -0.00480
C172        C  0.07444950  0.53765099  0.85936634    -0.12660
C173        C  0.09423335  0.51745574  0.85804211     0.02010
C174        C  0.13430007  0.53755832  0.85626132    -0.12080
H175        H  0.15048576  0.62848850  0.86324653     0.07600
H176        H  0.04353682  0.52190616  0.86200832     0.05130
H177        H  0.14964523  0.52197783  0.85817734     0.04980
C178        C  0.15534428  0.57737033  0.47667052     0.02020
C179        C  0.13537772  0.59742380  0.47532562    -0.14130
C180        C  0.09518061  0.57765259  0.47572189    -0.00380
C181        C  0.07517889  0.53744833  0.47618278    -0.12660
C182        C  0.09495634  0.51723339  0.47753796     0.02010
C183        C  0.13503044  0.53731616  0.47926316    -0.12080
H184        H  0.15121777  0.62830463  0.47208554     0.07600
H185        H  0.04425823  0.52173052  0.47357755     0.05130
H186        H  0.15036290  0.52174308  0.47736620     0.04980
N187        N  0.31831846  0.65473438  0.01864980    -0.07230
N188        N  0.31140471  0.63936115  0.05596402    -0.59350
N189        N  0.31337371  0.39071125  0.96735568    -0.06910
N190        N  0.30714155  0.41970286  0.97009779    -0.61480
N191        N  0.28082519  0.35806020  0.96765682    -0.06510
N192        N  0.25173288  0.36414417  0.97058295    -0.59330
N193        N  0.01752589  0.35412298  0.01827378    -0.06190
N194        N  0.03329392  0.36160330  0.05531094    -0.61830
C195        C  0.00860473  0.66454785  0.07852456     0.94950
C196        C  0.26856821  0.40273425  0.97207146     0.94720
N197        N  0.06268920  0.41995431  0.87474341    -0.07420
N198        N  0.07800563  0.44951548  0.84907574    -0.59930
N199        N  0.09011571  0.39325119  0.95916756    -0.05540
N200        N  0.11955640  0.40830789  0.98486061    -0.61180
N201        N  0.09921253  0.38220967  0.92501408    -0.07450
N202        N  0.13456377  0.38873812  0.92710397    -0.60200
N203        N  0.05162462  0.42902711  0.90889885    -0.05180
N204        N  0.05836729  0.46445123  0.90682171    -0.61270
Mn205      Mn  0.03523439  0.39249050  0.96414013     1.18440
C206        C  0.07425744  0.47672094  0.86921574     0.97030
C207        C  0.14673426  0.40447248  0.96472991     0.97690
N208        N  0.24267620  0.61935610  0.91009452    -0.07470
N209        N  0.20735845  0.61290520  0.90788303    -0.63770
N210        N  0.29034583  0.57256285  0.92650687    -0.06270
N211        N  0.28368752  0.53717543  0.92863095    -0.64450
N212        N  0.27910644  0.58159493  0.96055941    -0.06970
N213        N  0.26375763  0.55202683  0.98621972    -0.64040
N214        N  0.25178523  0.60818153  0.87605370    -0.05870
N215        N  0.22238717  0.59312526  0.85029940    -0.64730
Mn216      Mn  0.27949436  0.63634389  0.96499689     1.10660
C217        C  0.19522002  0.59709106  0.87028567     0.98250
C218        C  0.26766940  0.52487351  0.96617015     0.98330
N219        N  0.06107493  0.64352646  0.86744190    -0.06980
N220        N  0.09019197  0.63748418  0.86436810    -0.62350
N221        N  0.32427555  0.64712275  0.81715093    -0.06300
N222        N  0.30862665  0.63898922  0.78010518    -0.59080
N223        N  0.02322216  0.34677900  0.81658761    -0.07610
N224        N  0.02996287  0.36184567  0.77908850    -0.61920
N225        N  0.02856656  0.61084072  0.86797001    -0.06600
N226        N  0.03483763  0.58187890  0.86519534    -0.59110
Mn227      Mn  0.06228481  0.36523223  0.87016139     1.20190
Mn228      Mn  0.30670189  0.60898000  0.87126066     1.10090
Cl229      Cl  0.00427196  0.33410005  0.91764458    -0.87080
C230        C  0.07340035  0.59888634  0.86299807     0.95260
C231        C  0.33292345  0.33604777  0.75677066     0.95050
N232        N  0.09981034  0.38263350  0.41042659    -0.07230
N233        N  0.13513093  0.38911773  0.40827241    -0.59350
N234        N  0.05219657  0.42925883  0.42670008    -0.06910
N235        N  0.05892095  0.46465392  0.42881025    -0.61480
N236        N  0.06339093  0.41988513  0.46081157    -0.06510
N237        N  0.07877903  0.44921471  0.48648275    -0.59330
N238        N  0.09063968  0.39402739  0.37631771    -0.06190
N239        N  0.11999931  0.40928015  0.35058130    -0.61830
C240        C  0.14720537  0.40519902  0.37064777     0.94950
C241        C  0.07493793  0.47659097  0.46639106     0.94720
N242        N  0.28131641  0.35880861  0.36778893    -0.07420
N243        N  0.25220311  0.36489387  0.36482070    -0.59930
N244        N  0.01801648  0.35551537  0.31726292    -0.05540
N245        N  0.03390812  0.36342475  0.28033910    -0.61180
N246        N  0.31886499  0.65607952  0.31673701    -0.07450
N247        N  0.31213194  0.64108662  0.27939193    -0.60200
N248        N  0.31384800  0.39147260  0.36819709    -0.05180
N249        N  0.30758593  0.42047160  0.36547355    -0.61270
Mn250      Mn  0.03573718  0.39328629  0.37142071     1.18440
C251        C  0.26901250  0.40349863  0.36340978     0.97030
C252        C  0.00935544  0.66664526  0.25698162     0.97690
N253        N  0.02418663  0.34614169  0.51891679    -0.07470
N254        N  0.03112446  0.36076090  0.55647724    -0.63770
N255        N  0.02930609  0.61072190  0.46739737    -0.06270
N256        N  0.03557403  0.58173192  0.47019587    -0.64450
N257        N  0.06182049  0.64339955  0.46792526    -0.06970
N258        N  0.09093700  0.63732463  0.47102433    -0.64040
N259        N  0.32518580  0.64653792  0.51830616    -0.05870
N260        N  0.30966778  0.63801303  0.55537337    -0.64730
Mn261      Mn  0.06303540  0.36512803  0.46529216     1.10660
C262        C  0.33421763  0.33466165  0.57881295     0.98250
C263        C  0.07413977  0.59871534  0.47240595     0.98330
N264        N  0.27967007  0.58229903  0.37481740    -0.06980
N265        N  0.26423525  0.55294189  0.34918057    -0.62350
N266        N  0.25249567  0.60812788  0.45935326    -0.06300
N267        N  0.22315069  0.59284835  0.48511515    -0.59080
N268        N  0.24329963  0.61955886  0.42528840    -0.07610
N269        N  0.20797813  0.61306961  0.42749828    -0.61920
N270        N  0.29094909  0.57295766  0.40888721    -0.06600
N271        N  0.28424113  0.53757092  0.40679005    -0.59110
Mn272      Mn  0.28004338  0.63708805  0.37038446     1.20190
Mn273      Mn  0.30743542  0.60889206  0.46414363     1.10090
Cl274      Cl  0.00489659  0.33443472  0.41780994    -0.87080
C275        C  0.26814367  0.52559464  0.36925586     0.95260
C276        C  0.19592618  0.59695048  0.46511269     0.95050
C277        C  0.33094927  0.33642911  0.71129861    -0.06580
C278        C  0.98301852  0.63500688  0.69016589    -0.34010
C279        C  0.98383480  0.63420686  0.64712535     0.35240
C280        C  0.33193216  0.33517450  0.62425366    -0.06940
C281        C  0.34609843  0.36999744  0.64529461    -0.33910
C282        C  0.34549881  0.37076166  0.68859036     0.35150
H283        H  0.97233908  0.60836909  0.70711377     0.15520
O284        O  0.97170268  0.59984198  0.62786776    -0.61400
H285        H  0.35760527  0.39660735  0.62813801     0.15530
O286        O  0.35914566  0.40511081  0.70835553    -0.61500
H287        H  0.33640268  0.40790513  0.71279963     0.42530
H288        H  0.99494462  0.59761084  0.62508856     0.42480
C289        C  0.01142192  0.66277051  0.12408588    -0.06580
C290        C  0.03907560  0.36186637  0.14528654    -0.34010
C291        C  0.03976543  0.36304181  0.18845270     0.35240
C292        C  0.01234944  0.66470873  0.21149729    -0.06940
C293        C  0.31914148  0.63160444  0.19033328    -0.33910
C294        C  0.31863389  0.63036866  0.14710187     0.35150
H295        H  0.05955072  0.38711175  0.12840026     0.15520
O296        O  0.06608276  0.39617798  0.20752240    -0.61400
H297        H  0.29805816  0.60676292  0.20729911     0.15530
O298        O  0.29164269  0.59771774  0.12782104    -0.61500
H299        H  0.30423254  0.58236304  0.12337778     0.42530
H300        H  0.08919644  0.39380951  0.21099695     0.42480
C301        C  0.18734547  0.75731096  0.97622311     0.02020
C302        C  0.20762640  0.79733312  0.97890960    -0.14130
C303        C  0.24769800  0.81746067  0.97726002    -0.00480
C304        C  0.26750737  0.79729089  0.97587057    -0.12660
C305        C  0.24753035  0.75709594  0.97531623     0.02010
C306        C  0.20733458  0.73730384  0.97483411    -0.12080
H307        H  0.19226773  0.81290241  0.97704521     0.07600
H308        H  0.29842719  0.81305299  0.97332278     0.05130
H309        H  0.19150749  0.70645652  0.97154286     0.04980
C310        C  0.18778677  0.75812067  0.35913348     0.02020
C311        C  0.20807224  0.79816897  0.35646273    -0.14130
C312        C  0.24814454  0.81827542  0.35816848    -0.00480
C313        C  0.26794480  0.79808324  0.35959553    -0.12660
C314        C  0.24796380  0.75788235  0.36012743     0.02010
C315        C  0.20776947  0.73809068  0.36055123    -0.12080
H316        H  0.19272115  0.81372658  0.35830679     0.07600
H317        H  0.29886650  0.81381774  0.36218377     0.05130
H318        H  0.19194276  0.70721313  0.36383619     0.04980
C319        C  0.15461099  0.91092640  0.85876470     0.02020
C320        C  0.13464136  0.93096352  0.86007582    -0.14130
C321        C  0.09444270  0.91118734  0.85973197    -0.00480
C322        C  0.07444950  0.87098432  0.85936634    -0.12660
C323        C  0.09423335  0.85078907  0.85804211     0.02010
C324        C  0.13430007  0.87089166  0.85626133    -0.12080
H325        H  0.15048576  0.96182184  0.86324653     0.07600
H326        H  0.04353682  0.85523950  0.86200832     0.05130
H327        H  0.14964523  0.85531116  0.85817734     0.04980
C328        C  0.15534428  0.91070367  0.47667051     0.02020
C329        C  0.13537773  0.93075713  0.47532562    -0.14130
C330        C  0.09518061  0.91098593  0.47572189    -0.00380
C331        C  0.07517889  0.87078167  0.47618278    -0.12660
C332        C  0.09495634  0.85056672  0.47753796     0.02010
C333        C  0.13503044  0.87064949  0.47926316    -0.12080
H334        H  0.15121777  0.96163797  0.47208554     0.07600
H335        H  0.04425823  0.85506385  0.47357756     0.05130
H336        H  0.15036290  0.85507642  0.47736619     0.04980
N337        N  0.31831846  0.98806771  0.01864980    -0.07230
N338        N  0.31140471  0.97269448  0.05596401    -0.59350
N339        N  0.31337371  0.72404458  0.96735568    -0.06910
N340        N  0.30714156  0.75303620  0.97009779    -0.61480
N341        N  0.28082519  0.69139353  0.96765681    -0.06510
N342        N  0.25173288  0.69747751  0.97058295    -0.59330
N343        N  0.01752589  0.68745631  0.01827378    -0.06190
N344        N  0.03329392  0.69493663  0.05531094    -0.61830
C345        C  0.00860473  0.99788117  0.07852456     0.94950
C346        C  0.26856821  0.73606758  0.97207146     0.94720
N347        N  0.06268920  0.75328764  0.87474341    -0.07420
N348        N  0.07800563  0.78284882  0.84907574    -0.59930
N349        N  0.09011571  0.72658452  0.95916756    -0.05540
N350        N  0.11955641  0.74164122  0.98486061    -0.61180
N351        N  0.09921253  0.71554300  0.92501408    -0.07450
N352        N  0.13456377  0.72207146  0.92710398    -0.60200
N353        N  0.05162462  0.76236044  0.90889886    -0.05180
N354        N  0.05836729  0.79778456  0.90682171    -0.61270
Mn355      Mn  0.03523440  0.72582384  0.96414013     1.18440
C356        C  0.07425745  0.81005428  0.86921575     0.97030
C357        C  0.14673426  0.73780581  0.96472991     0.97690
N358        N  0.24267620  0.95268943  0.91009452    -0.07470
N359        N  0.20735845  0.94623853  0.90788303    -0.63770
N360        N  0.29034583  0.90589618  0.92650687    -0.06270
N361        N  0.28368752  0.87050876  0.92863095    -0.64450
N362        N  0.27910644  0.91492827  0.96055941    -0.06970
N363        N  0.26375763  0.88536016  0.98621971    -0.64040
N364        N  0.25178524  0.94151486  0.87605370    -0.05870
N365        N  0.22238717  0.92645860  0.85029940    -0.64730
Mn366      Mn  0.27949436  0.96967722  0.96499689     1.10660
C367        C  0.19522002  0.93042439  0.87028566     0.98250
C368        C  0.26766940  0.85820685  0.96617014     0.98330
N369        N  0.06107493  0.97685979  0.86744189    -0.06980
N370        N  0.09019197  0.97081751  0.86436809    -0.62350
N371        N  0.32427555  0.98045609  0.81715093    -0.06300
N372        N  0.30862666  0.97232256  0.78010518    -0.59080
N373        N  0.02322217  0.68011234  0.81658761    -0.07610
N374        N  0.02996287  0.69517900  0.77908850    -0.61920
N375        N  0.02856656  0.94417405  0.86797001    -0.06600
N376        N  0.03483763  0.91521223  0.86519534    -0.59110
Mn377      Mn  0.06228481  0.69856556  0.87016139     1.20190
Mn378      Mn  0.30670189  0.94231333  0.87126066     1.10090
Cl379      Cl  0.00427196  0.66743338  0.91764459    -0.87080
C380        C  0.07340035  0.93221968  0.86299807     0.95260
C381        C  0.33292345  0.66938111  0.75677066     0.95050
N382        N  0.09981034  0.71596683  0.41042660    -0.07230
N383        N  0.13513093  0.72245106  0.40827241    -0.59350
N384        N  0.05219657  0.76259216  0.42670008    -0.06910
N385        N  0.05892095  0.79798725  0.42881025    -0.61480
N386        N  0.06339093  0.75321847  0.46081158    -0.06510
N387        N  0.07877903  0.78254804  0.48648275    -0.59330
N388        N  0.09063968  0.72736072  0.37631772    -0.06190
N389        N  0.11999931  0.74261348  0.35058130    -0.61830
C390        C  0.14720537  0.73853235  0.37064778     0.94950
C391        C  0.07493793  0.80992431  0.46639106     0.94720
N392        N  0.28131641  0.69214194  0.36778893    -0.07420
N393        N  0.25220311  0.69822720  0.36482070    -0.59930
N394        N  0.01801648  0.68884871  0.31726292    -0.05540
N395        N  0.03390812  0.69675808  0.28033910    -0.61180
N396        N  0.31886500  0.98941285  0.31673701    -0.07450
N397        N  0.31213194  0.97441994  0.27939193    -0.60200
N398        N  0.31384800  0.72480593  0.36819709    -0.05180
N399        N  0.30758592  0.75380493  0.36547356    -0.61270
Mn400      Mn  0.03573718  0.72661963  0.37142071     1.18440
C401        C  0.26901250  0.73683197  0.36340978     0.97030
C402        C  0.00935544  0.99997858  0.25698162     0.97690
N403        N  0.02418663  0.67947502  0.51891680    -0.07470
N404        N  0.03112446  0.69409423  0.55647724    -0.63770
N405        N  0.02930609  0.94405524  0.46739737    -0.06270
N406        N  0.03557403  0.91506525  0.47019587    -0.64450
N407        N  0.06182049  0.97673289  0.46792526    -0.06970
N408        N  0.09093701  0.97065796  0.47102433    -0.64040
N409        N  0.32518580  0.97987126  0.51830616    -0.05870
N410        N  0.30966778  0.97134637  0.55537337    -0.64730
Mn411      Mn  0.06303540  0.69846136  0.46529216     1.10660
C412        C  0.33421763  0.66799499  0.57881295     0.98250
C413        C  0.07413977  0.93204867  0.47240595     0.98330
N414        N  0.27967007  0.91563236  0.37481740    -0.06980
N415        N  0.26423525  0.88627522  0.34918057    -0.62350
N416        N  0.25249567  0.94146122  0.45935326    -0.06300
N417        N  0.22315069  0.92618168  0.48511515    -0.59080
N418        N  0.24329964  0.95289220  0.42528839    -0.07610
N419        N  0.20797814  0.94640294  0.42749827    -0.61920
N420        N  0.29094909  0.90629099  0.40888721    -0.06600
N421        N  0.28424113  0.87090425  0.40679005    -0.59110
Mn422      Mn  0.28004338  0.97042138  0.37038446     1.20190
Mn423      Mn  0.30743542  0.94222539  0.46414363     1.10090
Cl424      Cl  0.00489659  0.66776806  0.41780994    -0.87080
C425        C  0.26814367  0.85892798  0.36925586     0.95260
C426        C  0.19592619  0.93028382  0.46511269     0.95050
C427        C  0.33094928  0.66976245  0.71129861    -0.06580
C428        C  0.98301853  0.96834022  0.69016589    -0.34010
C429        C  0.98383481  0.96754020  0.64712535     0.35240
C430        C  0.33193216  0.66850784  0.62425366    -0.06940
C431        C  0.34609843  0.70333078  0.64529461    -0.33910
C432        C  0.34549882  0.70409500  0.68859036     0.35150
H433        H  0.97233909  0.94170243  0.70711377     0.15520
O434        O  0.97170269  0.93317532  0.62786776    -0.61400
H435        H  0.35760527  0.72994068  0.62813801     0.15530
O436        O  0.35914567  0.73844414  0.70835553    -0.61500
H437        H  0.33640269  0.74123847  0.71279963     0.42530
H438        H  0.99494463  0.93094418  0.62508856     0.42480
C439        C  0.01142192  0.99610383  0.12408587    -0.06580
C440        C  0.03907561  0.69519970  0.14528655    -0.34010
C441        C  0.03976543  0.69637514  0.18845270     0.35240
C442        C  0.01234944  0.99804205  0.21149728    -0.06940
C443        C  0.31914147  0.96493777  0.19033328    -0.33910
C444        C  0.31863388  0.96370199  0.14710187     0.35150
H445        H  0.05955072  0.72044508  0.12840027     0.15520
O446        O  0.06608277  0.72951131  0.20752241    -0.61400
H447        H  0.29805815  0.94009625  0.20729911     0.15530
O448        O  0.29164267  0.93105107  0.12782104    -0.61500
H449        H  0.30423251  0.91569636  0.12337778     0.42530
H450        H  0.08919644  0.72714284  0.21099696     0.42480
C451        C  0.52067880  0.09064429  0.97622311     0.02020
C452        C  0.54095973  0.13066645  0.97890960    -0.14130
C453        C  0.58103134  0.15079401  0.97726002    -0.00480
C454        C  0.60084071  0.13062423  0.97587058    -0.12660
C455        C  0.58086368  0.09042927  0.97531624     0.02010
C456        C  0.54066791  0.07063717  0.97483412    -0.12080
H457        H  0.52560107  0.14623574  0.97704521     0.07600
H458        H  0.63176053  0.14638632  0.97332279     0.05130
H459        H  0.52484083  0.03978985  0.97154287     0.04980
C460        C  0.52112011  0.09145400  0.35913348     0.02020
C461        C  0.54140558  0.13150231  0.35646273    -0.14130
C462        C  0.58147788  0.15160876  0.35816848    -0.00480
C463        C  0.60127814  0.13141657  0.35959552    -0.12660
C464        C  0.58129714  0.09121569  0.36012742     0.02010
C465        C  0.54110281  0.07142402  0.36055122    -0.12080
H466        H  0.52605449  0.14705992  0.35830680     0.07600
H467        H  0.63219984  0.14715108  0.36218376     0.05130
H468        H  0.52527610  0.04054647  0.36383618     0.04980
C469        C  0.48794432  0.24425973  0.85876469     0.02020
C470        C  0.46797469  0.26429685  0.86007582    -0.14130
C471        C  0.42777604  0.24452067  0.85973198    -0.00480
C472        C  0.40778283  0.20431765  0.85936634    -0.12660
C473        C  0.42756669  0.18412241  0.85804211     0.02010
C474        C  0.46763341  0.20422499  0.85626132    -0.12080
H475        H  0.48381909  0.29515517  0.86324653     0.07600
H476        H  0.37687015  0.18857283  0.86200833     0.05130
H477        H  0.48297857  0.18864450  0.85817734     0.04980
C478        C  0.48867762  0.24403700  0.47667052     0.02020
C479        C  0.46871106  0.26409047  0.47532562    -0.14130
C480        C  0.42851395  0.24431926  0.47572189    -0.00380
C481        C  0.40851223  0.20411500  0.47618278    -0.12660
C482        C  0.42828968  0.18390005  0.47753796     0.02010
C483        C  0.46836377  0.20398283  0.47926316    -0.12080
H484        H  0.48455111  0.29497130  0.47208555     0.07600
H485        H  0.37759156  0.18839719  0.47357755     0.05130
H486        H  0.48369624  0.18840975  0.47736620     0.04980
N487        N  0.65165179  0.32140104  0.01864980    -0.07230
N488        N  0.64473804  0.30602782  0.05596402    -0.59350
N489        N  0.64670705  0.05737791  0.96735571    -0.06910
N490        N  0.64047489  0.08636953  0.97009781    -0.61480
N491        N  0.61415853  0.02472686  0.96765683    -0.06510
N492        N  0.58506622  0.03081084  0.97058296    -0.59330
N493        N  0.35085922  0.02078964  0.01827378    -0.06190
N494        N  0.36662725  0.02826996  0.05531094    -0.61830
C495        C  0.34193806  0.33121452  0.07852456     0.94950
C496        C  0.60190155  0.06940091  0.97207148     0.94720
N497        N  0.39602254  0.08662097  0.87474342    -0.07420
N498        N  0.41133896  0.11618215  0.84907575    -0.59930
N499        N  0.42344904  0.05991785  0.95916756    -0.05540
N500        N  0.45288974  0.07497455  0.98486061    -0.61180
N501        N  0.43254587  0.04887633  0.92501408    -0.07450
N502        N  0.46789710  0.05540479  0.92710398    -0.60200
N503        N  0.38495796  0.09569377  0.90889886    -0.05180
N504        N  0.39170063  0.13111790  0.90682172    -0.61270
Mn505      Mn  0.36856773  0.05915717  0.96414013     1.18440
C506        C  0.40759078  0.14338761  0.86921575     0.97030
C507        C  0.48006759  0.07113914  0.96472992     0.97690
N508        N  0.57600953  0.28602276  0.91009452    -0.07470
N509        N  0.54069178  0.27957186  0.90788303    -0.63770
N510        N  0.62367917  0.23922952  0.92650687    -0.06270
N511        N  0.61702086  0.20384210  0.92863095    -0.64450
N512        N  0.61243977  0.24826160  0.96055941    -0.06970
N513        N  0.59709096  0.21869349  0.98621972    -0.64040
N514        N  0.58511857  0.27484819  0.87605370    -0.05870
N515        N  0.55572050  0.25979193  0.85029940    -0.64730
Mn516      Mn  0.61282769  0.30301056  0.96499689     1.10660
C517        C  0.52855335  0.26375773  0.87028566     0.98250
C518        C  0.60100273  0.19154018  0.96617014     0.98330
N519        N  0.39440826  0.31019312  0.86744190    -0.06980
N520        N  0.42352530  0.30415084  0.86436810    -0.62350
N521        N  0.65760888  0.31378942  0.81715093    -0.06300
N522        N  0.64195999  0.30565589  0.78010518    -0.59080
N523        N  0.35655550  0.01344567  0.81658761    -0.07610
N524        N  0.36329621  0.02851234  0.77908850    -0.61920
N525        N  0.36189989  0.27750738  0.86797001    -0.06600
N526        N  0.36817096  0.24854557  0.86519534    -0.59110
Mn527      Mn  0.39561815  0.03189889  0.87016139     1.20190
Mn528      Mn  0.64003522  0.27564666  0.87126066     1.10090
Cl529      Cl  0.33760530  0.00076672  0.91764458    -0.87080
C530        C  0.40673368  0.26555301  0.86299808     0.95260
C531        C  0.66625681  0.00271446  0.75677066     0.95050
N532        N  0.43314368  0.04930016  0.41042659    -0.07230
N533        N  0.46846427  0.05578440  0.40827241    -0.59350
N534        N  0.38552990  0.09592550  0.42670008    -0.06910
N535        N  0.39225429  0.13132059  0.42881024    -0.61480
N536        N  0.39672427  0.08655180  0.46081157    -0.06510
N537        N  0.41211237  0.11588138  0.48648274    -0.59330
N538        N  0.42397302  0.06069406  0.37631771    -0.06190
N539        N  0.45333265  0.07594682  0.35058130    -0.61830
C540        C  0.48053871  0.07186569  0.37064777     0.94950
C541        C  0.40827126  0.14325764  0.46639105     0.94720
N542        N  0.61464974  0.02547528  0.36778890    -0.07420
N543        N  0.58553645  0.03156054  0.36482068    -0.59930
N544        N  0.35134982  0.02218204  0.31726292    -0.05540
N545        N  0.36724145  0.03009141  0.28033910    -0.61180
N546        N  0.65219833  0.32274619  0.31673702    -0.07450
N547        N  0.64546527  0.30775329  0.27939193    -0.60200
N548        N  0.64718134  0.05813927  0.36819705    -0.05180
N549        N  0.64091927  0.08713827  0.36547352    -0.61270
Mn550      Mn  0.36907052  0.05995296  0.37142071     1.18440
C551        C  0.60234584  0.07016530  0.36340975     0.97030
C552        C  0.34268876  0.33331193  0.25698162     0.97690
N553        N  0.35751997  0.01280836  0.51891679    -0.07470
N554        N  0.36445780  0.02742757  0.55647724    -0.63770
N555        N  0.36263942  0.27738857  0.46739737    -0.06270
N556        N  0.36890736  0.24839858  0.47019587    -0.64450
N557        N  0.39515383  0.31006622  0.46792526    -0.06970
N558        N  0.42427034  0.30399129  0.47102433    -0.64040
N559        N  0.65851914  0.31320460  0.51830616    -0.05870
N560        N  0.64300112  0.30467971  0.55537338    -0.64730
Mn561      Mn  0.39636874  0.03179469  0.46529216     1.10660
C562        C  0.66755100  0.00132835  0.57881294     0.98250
C563        C  0.40747310  0.26538201  0.47240595     0.98330
N564        N  0.61300341  0.24896570  0.37481741    -0.06980
N565        N  0.59756859  0.21960856  0.34918058    -0.62350
N566        N  0.58582901  0.27479455  0.45935326    -0.06300
N567        N  0.55648403  0.25951502  0.48511516    -0.59080
N568        N  0.57663297  0.28622554  0.42528840    -0.07610
N569        N  0.54131147  0.27973628  0.42749828    -0.61920
N570        N  0.62428242  0.23962433  0.40888721    -0.06600
N571        N  0.61757447  0.20423759  0.40679006    -0.59110
Mn572      Mn  0.61337672  0.30375472  0.37038446     1.20190
Mn573      Mn  0.64076876  0.27555873  0.46414363     1.10090
Cl574      Cl  0.33822993  0.00110139  0.41780994    -0.87080
C575        C  0.60147701  0.19226132  0.36925586     0.95260
C576        C  0.52925952  0.26361715  0.46511270     0.95050
C577        C  0.66428265  0.00309581  0.71129861    -0.06580
C578        C  0.31635186  0.30167355  0.69016589    -0.34010
C579        C  0.31716815  0.30087352  0.64712536     0.35240
C580        C  0.66526554  0.00184120  0.62425365    -0.06940
C581        C  0.67943178  0.03666414  0.64529461    -0.33910
C582        C  0.67883217  0.03742835  0.68859036     0.35150
H583        H  0.30567242  0.27503575  0.70711377     0.15520
O584        O  0.30503603  0.26650865  0.62786777    -0.61400
H585        H  0.69093861  0.06327404  0.62813801     0.15530
O586        O  0.69247900  0.07177750  0.70835553    -0.61500
H587        H  0.66973600  0.07457180  0.71279963     0.42530
H588        H  0.32827797  0.26427751  0.62508856     0.42480
C589        C  0.34475524  0.32943718  0.12408588    -0.06580
C590        C  0.37240894  0.02853301  0.14528655    -0.34010
C591        C  0.37309876  0.02970846  0.18845270     0.35240
C592        C  0.34568276  0.33137540  0.21149729    -0.06940
C593        C  0.65247483  0.29827111  0.19033328    -0.33910
C594        C  0.65196724  0.29703533  0.14710187     0.35150
H595        H  0.39288406  0.05377839  0.12840026     0.15520
O596        O  0.39941612  0.06284462  0.20752241    -0.61400
H597        H  0.63139153  0.27342958  0.20729912     0.15530
O598        O  0.62497606  0.26438439  0.12782105    -0.61500
H599        H  0.63756595  0.24902972  0.12337778     0.42530
H600        H  0.42252978  0.06047613  0.21099696     0.42480
C601        C  0.52067880  0.42397763  0.97622311     0.02020
C602        C  0.54095973  0.46399979  0.97890960    -0.14130
C603        C  0.58103133  0.48412734  0.97726002    -0.00480
C604        C  0.60084070  0.46395756  0.97587057    -0.12660
C605        C  0.58086368  0.42376260  0.97531623     0.02010
C606        C  0.54066791  0.40397051  0.97483411    -0.12080
H607        H  0.52560106  0.47956908  0.97704521     0.07600
H608        H  0.63176052  0.47971966  0.97332278     0.05130
H609        H  0.52484082  0.37312318  0.97154286     0.04980
C610        C  0.52112011  0.42478734  0.35913349     0.02020
C611        C  0.54140558  0.46483564  0.35646273    -0.14130
C612        C  0.58147787  0.48494210  0.35816849    -0.00480
C613        C  0.60127813  0.46474991  0.35959554    -0.12660
C614        C  0.58129713  0.42454903  0.36012744     0.02010
C615        C  0.54110281  0.40475735  0.36055124    -0.12080
H616        H  0.52605448  0.48039325  0.35830680     0.07600
H617        H  0.63219983  0.48048442  0.36218377     0.05130
H618        H  0.52527609  0.37387980  0.36383620     0.04980
C619        C  0.48794432  0.57759307  0.85876469     0.02020
C620        C  0.46797469  0.59763019  0.86007581    -0.14130
C621        C  0.42777604  0.57785400  0.85973197    -0.00480
C622        C  0.40778283  0.53765099  0.85936634    -0.12660
C623        C  0.42756669  0.51745574  0.85804211     0.02010
C624        C  0.46763341  0.53755832  0.85626132    -0.12080
H625        H  0.48381909  0.62848850  0.86324653     0.07600
H626        H  0.37687015  0.52190616  0.86200833     0.05130
H627        H  0.48297857  0.52197783  0.85817734     0.04980
C628        C  0.48867762  0.57737033  0.47667052     0.02020
C629        C  0.46871106  0.59742380  0.47532563    -0.14130
C630        C  0.42851394  0.57765259  0.47572190    -0.00380
C631        C  0.40851223  0.53744834  0.47618279    -0.12660
C632        C  0.42828968  0.51723339  0.47753797     0.02010
C633        C  0.46836377  0.53731616  0.47926317    -0.12080
H634        H  0.48455111  0.62830463  0.47208555     0.07600
H635        H  0.37759156  0.52173052  0.47357756     0.05130
H636        H  0.48369624  0.52174308  0.47736620     0.04980
N637        N  0.65165179  0.65473438  0.01864980    -0.07230
N638        N  0.64473804  0.63936116  0.05596402    -0.59350
N639        N  0.64670704  0.39071124  0.96735568    -0.06910
N640        N  0.64047489  0.41970286  0.97009778    -0.61480
N641        N  0.61415852  0.35806019  0.96765681    -0.06510
N642        N  0.58506621  0.36414417  0.97058295    -0.59330
N643        N  0.35085922  0.35412298  0.01827378    -0.06190
N644        N  0.36662724  0.36160330  0.05531094    -0.61830
C645        C  0.34193806  0.66454785  0.07852456     0.94950
C646        C  0.60190154  0.40273424  0.97207146     0.94720
N647        N  0.39602254  0.41995431  0.87474341    -0.07420
N648        N  0.41133896  0.44951548  0.84907574    -0.59930
N649        N  0.42344904  0.39325119  0.95916756    -0.05540
N650        N  0.45288974  0.40830789  0.98486061    -0.61180
N651        N  0.43254586  0.38220967  0.92501408    -0.07450
N652        N  0.46789710  0.38873812  0.92710398    -0.60200
N653        N  0.38495795  0.42902711  0.90889885    -0.05180
N654        N  0.39170062  0.46445123  0.90682171    -0.61270
Mn655      Mn  0.36856773  0.39249050  0.96414013     1.18440
C656        C  0.40759078  0.47672094  0.86921574     0.97030
C657        C  0.48006759  0.40447247  0.96472991     0.97690
N658        N  0.57600954  0.61935610  0.91009452    -0.07470
N659        N  0.54069178  0.61290520  0.90788303    -0.63770
N660        N  0.62367917  0.57256285  0.92650687    -0.06270
N661        N  0.61702085  0.53717543  0.92863095    -0.64450
N662        N  0.61243977  0.58159493  0.96055941    -0.06970
N663        N  0.59709096  0.55202683  0.98621971    -0.64040
N664        N  0.58511857  0.60818153  0.87605370    -0.05870
N665        N  0.55572050  0.59312526  0.85029940    -0.64730
Mn666      Mn  0.61282769  0.63634389  0.96499688     1.10660
C667        C  0.52855335  0.59709106  0.87028566     0.98250
C668        C  0.60100273  0.52487351  0.96617014     0.98330
N669        N  0.39440826  0.64352646  0.86744190    -0.06980
N670        N  0.42352530  0.63748418  0.86436810    -0.62350
N671        N  0.65760888  0.64712275  0.81715093    -0.06300
N672        N  0.64195999  0.63898922  0.78010518    -0.59080
N673        N  0.35655550  0.34677900  0.81658761    -0.07610
N674        N  0.36329620  0.36184567  0.77908850    -0.61920
N675        N  0.36189989  0.61084072  0.86797001    -0.06600
N676        N  0.36817097  0.58187890  0.86519534    -0.59110
Mn677      Mn  0.39561814  0.36523223  0.87016139     1.20190
Mn678      Mn  0.64003522  0.60898000  0.87126066     1.10090
Cl679      Cl  0.33760529  0.33410005  0.91764458    -0.87080
C680        C  0.40673368  0.59888634  0.86299807     0.95260
C681        C  0.66625678  0.33604778  0.75677066     0.95050
N682        N  0.43314367  0.38263350  0.41042660    -0.07230
N683        N  0.46846426  0.38911773  0.40827241    -0.59350
N684        N  0.38552990  0.42925883  0.42670009    -0.06910
N685        N  0.39225429  0.46465392  0.42881025    -0.61480
N686        N  0.39672426  0.41988513  0.46081158    -0.06510
N687        N  0.41211237  0.44921471  0.48648275    -0.59330
N688        N  0.42397301  0.39402739  0.37631772    -0.06190
N689        N  0.45333264  0.40928015  0.35058131    -0.61830
C690        C  0.48053870  0.40519902  0.37064778     0.94950
C691        C  0.40827126  0.47659098  0.46639106     0.94720
N692        N  0.61464974  0.35880861  0.36778893    -0.07420
N693        N  0.58553645  0.36489387  0.36482070    -0.59930
N694        N  0.35134981  0.35551537  0.31726293    -0.05540
N695        N  0.36724144  0.36342475  0.28033910    -0.61180
N696        N  0.65219833  0.65607953  0.31673702    -0.07450
N697        N  0.64546527  0.64108663  0.27939193    -0.60200
N698        N  0.64718134  0.39147261  0.36819709    -0.05180
N699        N  0.64091926  0.42047161  0.36547356    -0.61270
Mn700      Mn  0.36907051  0.39328629  0.37142072     1.18440
C701        C  0.60234583  0.40349864  0.36340978     0.97030
C702        C  0.34268876  0.66664526  0.25698162     0.97690
N703        N  0.35751996  0.34614169  0.51891680    -0.07470
N704        N  0.36445779  0.36076090  0.55647724    -0.63770
N705        N  0.36263942  0.61072190  0.46739737    -0.06270
N706        N  0.36890736  0.58173192  0.47019587    -0.64450
N707        N  0.39515383  0.64339955  0.46792526    -0.06970
N708        N  0.42427034  0.63732463  0.47102433    -0.64040
N709        N  0.65851914  0.64653793  0.51830617    -0.05870
N710        N  0.64300112  0.63801304  0.55537338    -0.64730
Mn711      Mn  0.39636873  0.36512803  0.46529216     1.10660
C712        C  0.66755097  0.33466167  0.57881295     0.98250
C713        C  0.40747310  0.59871534  0.47240595     0.98330
N714        N  0.61300341  0.58229903  0.37481741    -0.06980
N715        N  0.59756859  0.55294189  0.34918058    -0.62350
N716        N  0.58582901  0.60812789  0.45935326    -0.06300
N717        N  0.55648403  0.59284835  0.48511516    -0.59080
N718        N  0.57663297  0.61955887  0.42528840    -0.07610
N719        N  0.54131147  0.61306961  0.42749828    -0.61920
N720        N  0.62428242  0.57295767  0.40888722    -0.06600
N721        N  0.61757447  0.53757092  0.40679006    -0.59110
Mn722      Mn  0.61337672  0.63708805  0.37038446     1.20190
Mn723      Mn  0.64076876  0.60889207  0.46414363     1.10090
Cl724      Cl  0.33822993  0.33443472  0.41780995    -0.87080
C725        C  0.60147700  0.52559465  0.36925587     0.95260
C726        C  0.52925952  0.59695049  0.46511270     0.95050
C727        C  0.66428261  0.33642912  0.71129861    -0.06580
C728        C  0.31635186  0.63500688  0.69016589    -0.34010
C729        C  0.31716815  0.63420686  0.64712536     0.35240
C730        C  0.66526551  0.33517452  0.62425366    -0.06940
C731        C  0.67943175  0.36999745  0.64529461    -0.33910
C732        C  0.67883214  0.37076167  0.68859036     0.35150
H733        H  0.30567242  0.60836909  0.70711377     0.15520
O734        O  0.30503603  0.59984198  0.62786777    -0.61400
H735        H  0.69093858  0.39660736  0.62813801     0.15530
O736        O  0.69247897  0.40511081  0.70835554    -0.61500
H737        H  0.66973598  0.40790512  0.71279964     0.42530
H738        H  0.32827797  0.59761084  0.62508856     0.42480
C739        C  0.34475524  0.66277052  0.12408588    -0.06580
C740        C  0.37240892  0.36186637  0.14528655    -0.34010
C741        C  0.37309875  0.36304182  0.18845270     0.35240
C742        C  0.34568276  0.66470873  0.21149729    -0.06940
C743        C  0.65247483  0.63160445  0.19033328    -0.33910
C744        C  0.65196724  0.63036867  0.14710187     0.35150
H745        H  0.39288404  0.38711176  0.12840027     0.15520
O746        O  0.39941608  0.39617799  0.20752241    -0.61400
H747        H  0.63139154  0.60676292  0.20729912     0.15530
O748        O  0.62497607  0.59771772  0.12782105    -0.61500
H749        H  0.63756596  0.58236306  0.12337778     0.42530
H750        H  0.42252976  0.39380952  0.21099695     0.42480
C751        C  0.52067880  0.75731096  0.97622311     0.02020
C752        C  0.54095973  0.79733312  0.97890960    -0.14130
C753        C  0.58103133  0.81746067  0.97726000    -0.00480
C754        C  0.60084070  0.79729089  0.97587056    -0.12660
C755        C  0.58086368  0.75709593  0.97531622     0.02010
C756        C  0.54066791  0.73730384  0.97483411    -0.12080
H757        H  0.52560106  0.81290241  0.97704521     0.07600
H758        H  0.63176052  0.81305299  0.97332277     0.05130
H759        H  0.52484082  0.70645651  0.97154286     0.04980
C760        C  0.52112010  0.75812067  0.35913349     0.02020
C761        C  0.54140557  0.79816897  0.35646273    -0.14130
C762        C  0.58147787  0.81827542  0.35816849    -0.00480
C763        C  0.60127813  0.79808324  0.35959554    -0.12660
C764        C  0.58129713  0.75788235  0.36012744     0.02010
C765        C  0.54110281  0.73809068  0.36055124    -0.12080
H766        H  0.52605448  0.81372658  0.35830680     0.07600
H767        H  0.63219983  0.81381775  0.36218378     0.05130
H768        H  0.52527609  0.70721313  0.36383619     0.04980
C769        C  0.48794432  0.91092640  0.85876469     0.02020
C770        C  0.46797469  0.93096352  0.86007581    -0.14130
C771        C  0.42777604  0.91118734  0.85973198    -0.00480
C772        C  0.40778284  0.87098432  0.85936634    -0.12660
C773        C  0.42756669  0.85078908  0.85804211     0.02010
C774        C  0.46763341  0.87089166  0.85626132    -0.12080
H775        H  0.48381909  0.96182184  0.86324653     0.07600
H776        H  0.37687016  0.85523950  0.86200833     0.05130
H777        H  0.48297857  0.85531117  0.85817734     0.04980
C778        C  0.48867762  0.91070367  0.47667051     0.02020
C779        C  0.46871106  0.93075713  0.47532562    -0.14130
C780        C  0.42851395  0.91098593  0.47572189    -0.00380
C781        C  0.40851223  0.87078167  0.47618278    -0.12660
C782        C  0.42828968  0.85056672  0.47753796     0.02010
C783        C  0.46836378  0.87064950  0.47926316    -0.12080
H784        H  0.48455111  0.96163797  0.47208554     0.07600
H785        H  0.37759157  0.85506385  0.47357756     0.05130
H786        H  0.48369624  0.85507642  0.47736619     0.04980
N787        N  0.65165179  0.98806769  0.01864981    -0.07230
N788        N  0.64473803  0.97269444  0.05596401    -0.59350
N789        N  0.64670704  0.72404458  0.96735568    -0.06910
N790        N  0.64047489  0.75303620  0.97009778    -0.61480
N791        N  0.61415852  0.69139353  0.96765681    -0.06510
N792        N  0.58506622  0.69747751  0.97058295    -0.59330
N793        N  0.35085922  0.68745631  0.01827378    -0.06190
N794        N  0.36662724  0.69493663  0.05531094    -0.61830
C795        C  0.34193806  0.99788117  0.07852456     0.94950
C796        C  0.60190155  0.73606758  0.97207146     0.94720
N797        N  0.39602254  0.75328764  0.87474341    -0.07420
N798        N  0.41133897  0.78284882  0.84907574    -0.59930
N799        N  0.42344904  0.72658452  0.95916756    -0.05540
N800        N  0.45288974  0.74164122  0.98486061    -0.61180
N801        N  0.43254586  0.71554300  0.92501408    -0.07450
N802        N  0.46789710  0.72207145  0.92710398    -0.60200
N803        N  0.38495796  0.76236044  0.90889886    -0.05180
N804        N  0.39170063  0.79778456  0.90682171    -0.61270
Mn805      Mn  0.36856773  0.72582384  0.96414013     1.18440
C806        C  0.40759078  0.81005428  0.86921575     0.97030
C807        C  0.48006759  0.73780580  0.96472991     0.97690
N808        N  0.57600954  0.95268944  0.91009452    -0.07470
N809        N  0.54069179  0.94623853  0.90788303    -0.63770
N810        N  0.62367916  0.90589618  0.92650686    -0.06270
N811        N  0.61702085  0.87050876  0.92863094    -0.64450
N812        N  0.61243977  0.91492826  0.96055940    -0.06970
N813        N  0.59709096  0.88536016  0.98621970    -0.64040
N814        N  0.58511857  0.94151487  0.87605369    -0.05870
N815        N  0.55572050  0.92645861  0.85029940    -0.64730
Mn816      Mn  0.61282769  0.96967722  0.96499689     1.10660
C817        C  0.52855335  0.93042440  0.87028566     0.98250
C818        C  0.60100272  0.85820684  0.96617013     0.98330
N819        N  0.39440826  0.97685979  0.86744190    -0.06980
N820        N  0.42352530  0.97081751  0.86436810    -0.62350
N821        N  0.65760889  0.98045610  0.81715093    -0.06300
N822        N  0.64196001  0.97232257  0.78010518    -0.59080
N823        N  0.35655550  0.68011234  0.81658761    -0.07610
N824        N  0.36329620  0.69517900  0.77908850    -0.61920
N825        N  0.36189989  0.94417405  0.86797001    -0.06600
N826        N  0.36817097  0.91521223  0.86519534    -0.59110
Mn827      Mn  0.39561815  0.69856556  0.87016139     1.20190
Mn828      Mn  0.64003523  0.94231334  0.87126066     1.10090
Cl829      Cl  0.33760529  0.66743338  0.91764458    -0.87080
C830        C  0.40673368  0.93221968  0.86299807     0.95260
C831        C  0.66625679  0.66938111  0.75677066     0.95050
N832        N  0.43314367  0.71596683  0.41042660    -0.07230
N833        N  0.46846426  0.72245106  0.40827241    -0.59350
N834        N  0.38552990  0.76259216  0.42670008    -0.06910
N835        N  0.39225429  0.79798725  0.42881025    -0.61480
N836        N  0.39672426  0.75321847  0.46081158    -0.06510
N837        N  0.41211237  0.78254805  0.48648275    -0.59330
N838        N  0.42397301  0.72736072  0.37631772    -0.06190
N839        N  0.45333264  0.74261348  0.35058131    -0.61830
C840        C  0.48053870  0.73853235  0.37064778     0.94950
C841        C  0.40827127  0.80992431  0.46639106     0.94720
N842        N  0.61464974  0.69214195  0.36778893    -0.07420
N843        N  0.58553645  0.69822720  0.36482071    -0.59930
N844        N  0.35134981  0.68884871  0.31726293    -0.05540
N845        N  0.36724144  0.69675808  0.28033910    -0.61180
N846        N  0.65219833  0.98941283  0.31673700    -0.07450
N847        N  0.64546528  0.97441990  0.27939193    -0.60200
N848        N  0.64718133  0.72480594  0.36819709    -0.05180
N849        N  0.64091926  0.75380494  0.36547356    -0.61270
Mn850      Mn  0.36907051  0.72661962  0.37142072     1.18440
C851        C  0.60234583  0.73683197  0.36340979     0.97030
C852        C  0.34268877  0.99997858  0.25698162     0.97690
N853        N  0.35751996  0.67947502  0.51891680    -0.07470
N854        N  0.36445779  0.69409424  0.55647724    -0.63770
N855        N  0.36263942  0.94405524  0.46739737    -0.06270
N856        N  0.36890737  0.91506525  0.47019587    -0.64450
N857        N  0.39515383  0.97673289  0.46792526    -0.06970
N858        N  0.42427034  0.97065796  0.47102433    -0.64040
N859        N  0.65851915  0.97987128  0.51830616    -0.05870
N860        N  0.64300114  0.97134639  0.55537337    -0.64730
Mn861      Mn  0.39636873  0.69846136  0.46529216     1.10660
C862        C  0.66755097  0.66799500  0.57881295     0.98250
C863        C  0.40747310  0.93204867  0.47240595     0.98330
N864        N  0.61300340  0.91563236  0.37481741    -0.06980
N865        N  0.59756858  0.88627522  0.34918058    -0.62350
N866        N  0.58582901  0.94146123  0.45935326    -0.06300
N867        N  0.55648403  0.92618170  0.48511515    -0.59080
N868        N  0.57663297  0.95289221  0.42528839    -0.07610
N869        N  0.54131147  0.94640295  0.42749827    -0.61920
N870        N  0.62428242  0.90629100  0.40888722    -0.06600
N871        N  0.61757446  0.87090425  0.40679006    -0.59110
Mn872      Mn  0.61337672  0.97042138  0.37038445     1.20190
Mn873      Mn  0.64076876  0.94222541  0.46414363     1.10090
Cl874      Cl  0.33822993  0.66776806  0.41780995    -0.87080
C875        C  0.60147700  0.85892798  0.36925587     0.95260
C876        C  0.52925952  0.93028382  0.46511269     0.95050
C877        C  0.66428262  0.66976246  0.71129862    -0.06580
C878        C  0.31635188  0.96834022  0.69016589    -0.34010
C879        C  0.31716816  0.96754020  0.64712535     0.35240
C880        C  0.66526551  0.66850785  0.62425366    -0.06940
C881        C  0.67943175  0.70333079  0.64529461    -0.33910
C882        C  0.67883214  0.70409500  0.68859036     0.35150
H883        H  0.30567244  0.94170243  0.70711377     0.15520
O884        O  0.30503604  0.93317532  0.62786776    -0.61400
H885        H  0.69093858  0.72994069  0.62813801     0.15530
O886        O  0.69247897  0.73844415  0.70835554    -0.61500
H887        H  0.66973598  0.74123846  0.71279964     0.42530
H888        H  0.32827799  0.93094419  0.62508856     0.42480
C889        C  0.34475524  0.99610383  0.12408588    -0.06580
C890        C  0.37240893  0.69519970  0.14528655    -0.34010
C891        C  0.37309875  0.69637515  0.18845270     0.35240
C892        C  0.34568276  0.99804205  0.21149729    -0.06940
C893        C  0.65247471  0.96493773  0.19033328    -0.33910
C894        C  0.65196710  0.96370195  0.14710187     0.35150
H895        H  0.39288404  0.72044509  0.12840027     0.15520
O896        O  0.39941609  0.72951132  0.20752241    -0.61400
H897        H  0.63139129  0.94009628  0.20729911     0.15530
O898        O  0.62497576  0.93105110  0.12782105    -0.61500
H899        H  0.63756546  0.91569626  0.12337779     0.42530
H900        H  0.42252976  0.72714285  0.21099695     0.42480
C901        C  0.85401214  0.09064429  0.97622313     0.02020
C902        C  0.87429307  0.13066645  0.97890961    -0.14130
C903        C  0.91436467  0.15079401  0.97726002    -0.00480
C904        C  0.93417404  0.13062423  0.97587058    -0.12660
C905        C  0.91419702  0.09042927  0.97531624     0.02010
C906        C  0.87400125  0.07063717  0.97483413    -0.12080
H907        H  0.85893440  0.14623574  0.97704522     0.07600
H908        H  0.96509386  0.14638633  0.97332278     0.05130
H909        H  0.85817416  0.03978985  0.97154288     0.04980
C910        C  0.85445344  0.09145400  0.35913346     0.02020
C911        C  0.87473891  0.13150231  0.35646271    -0.14130
C912        C  0.91481121  0.15160876  0.35816847    -0.00480
C913        C  0.93461147  0.13141657  0.35959552    -0.12660
C914        C  0.91463047  0.09121569  0.36012742     0.02010
C915        C  0.87443615  0.07142402  0.36055121    -0.12080
H916        H  0.85938782  0.14705991  0.35830677     0.07600
H917        H  0.96553317  0.14715108  0.36218376     0.05130
H918        H  0.85860943  0.04054646  0.36383617     0.04980
C919        C  0.82127765  0.24425973  0.85876471     0.02020
C920        C  0.80130802  0.26429685  0.86007582    -0.14130
C921        C  0.76110937  0.24452067  0.85973199    -0.00480
C922        C  0.74111617  0.20431765  0.85936637    -0.12660
C923        C  0.76090002  0.18412241  0.85804214     0.02010
C924        C  0.80096674  0.20422499  0.85626135    -0.12080
H925        H  0.81715243  0.29515517  0.86324653     0.07600
H926        H  0.71020349  0.18857283  0.86200836     0.05130
H927        H  0.81631190  0.18864450  0.85817736     0.04980
C928        C  0.82201095  0.24403700  0.47667050     0.02020
C929        C  0.80204439  0.26409047  0.47532561    -0.14130
C930        C  0.76184728  0.24431927  0.47572187    -0.00380
C931        C  0.74184556  0.20411501  0.47618275    -0.12660
C932        C  0.76162301  0.18390006  0.47753792     0.02010
C933        C  0.80169711  0.20398283  0.47926313    -0.12080
H934        H  0.81788444  0.29497131  0.47208554     0.07600
H935        H  0.71092490  0.18839719  0.47357752     0.05130
H936        H  0.81702957  0.18840976  0.47736617     0.04980
N937        N  0.98498513  0.32140104  0.01864980    -0.07230
N938        N  0.97807138  0.30602782  0.05596401    -0.59350
N939        N  0.98004038  0.05737791  0.96735569    -0.06910
N940        N  0.97380823  0.08636953  0.97009779    -0.61480
N941        N  0.94749186  0.02472686  0.96765682    -0.06510
N942        N  0.91839955  0.03081084  0.97058296    -0.59330
N943        N  0.68419255  0.02078961  0.01827379    -0.06190
N944        N  0.69996058  0.02826991  0.05531095    -0.61830
C945        C  0.67527139  0.33121452  0.07852456     0.94950
C946        C  0.93523488  0.06940091  0.97207147     0.94720
N947        N  0.72935588  0.08662098  0.87474344    -0.07420
N948        N  0.74467230  0.11618215  0.84907577    -0.59930
N949        N  0.75678238  0.05991784  0.95916758    -0.05540
N950        N  0.78622307  0.07497454  0.98486063    -0.61180
N951        N  0.76587920  0.04887633  0.92501410    -0.07450
N952        N  0.80123044  0.05540479  0.92710399    -0.60200
N953        N  0.71829130  0.09569377  0.90889889    -0.05180
N954        N  0.72503396  0.13111790  0.90682175    -0.61270
Mn955      Mn  0.70190106  0.05915716  0.96414015     1.18440
C956        C  0.74092411  0.14338761  0.86921578     0.97030
C957        C  0.81340093  0.07113914  0.96472993     0.97690
N958        N  0.90934287  0.28602276  0.91009453    -0.07470
N959        N  0.87402512  0.27957187  0.90788304    -0.63770
N960        N  0.95701250  0.23922952  0.92650687    -0.06270
N961        N  0.95035419  0.20384210  0.92863095    -0.64450
N962        N  0.94577311  0.24826160  0.96055941    -0.06970
N963        N  0.93042430  0.21869350  0.98621972    -0.64040
N964        N  0.91845190  0.27484819  0.87605370    -0.05870
N965        N  0.88905383  0.25979193  0.85029941    -0.64730
Mn966      Mn  0.94616102  0.30301056  0.96499689     1.10660
C967        C  0.86188668  0.26375773  0.87028567     0.98250
C968        C  0.93433606  0.19154018  0.96617015     0.98330
N969        N  0.72774159  0.31019312  0.86744190    -0.06980
N970        N  0.75685863  0.30415084  0.86436810    -0.62350
N971        N  0.99094221  0.31378942  0.81715093    -0.06300
N972        N  0.97529332  0.30565588  0.78010518    -0.59080
N973        N  0.68988885  0.01344569  0.81658762    -0.07610
N974        N  0.69662956  0.02851235  0.77908851    -0.61920
N975        N  0.69523322  0.27750738  0.86797001    -0.06600
N976        N  0.70150430  0.24854557  0.86519534    -0.59110
Mn977      Mn  0.72895149  0.03189890  0.87016141     1.20190
Mn978      Mn  0.97336855  0.27564666  0.87126066     1.10090
Cl979      Cl  0.67093863  0.00076672  0.91764459    -0.87080
C980        C  0.74006701  0.26555301  0.86299808     0.95260
C981        C  0.99959012  0.00271445  0.75677066     0.95050
N982        N  0.76647701  0.04930016  0.41042657    -0.07230
N983        N  0.80179760  0.05578440  0.40827239    -0.59350
N984        N  0.71886324  0.09592550  0.42670004    -0.06910
N985        N  0.72558763  0.13132059  0.42881021    -0.61480
N986        N  0.73005760  0.08655181  0.46081154    -0.06510
N987        N  0.74544570  0.11588139  0.48648271    -0.59330
N988        N  0.75730635  0.06069405  0.37631769    -0.06190
N989        N  0.78666598  0.07594681  0.35058128    -0.61830
C990        C  0.81387204  0.07186568  0.37064775     0.94950
C991        C  0.74160460  0.14325765  0.46639102     0.94720
N992        N  0.94798308  0.02547528  0.36778891    -0.07420
N993        N  0.91886978  0.03156053  0.36482068    -0.59930
N994        N  0.68468315  0.02218202  0.31726290    -0.05540
N995        N  0.70057479  0.03009136  0.28033908    -0.61180
N996        N  0.98553167  0.32274619  0.31673701    -0.07450
N997        N  0.97879861  0.30775328  0.27939192    -0.60200
N998        N  0.98051467  0.05813927  0.36819707    -0.05180
N999        N  0.97425260  0.08713827  0.36547354    -0.61270
Mn1000     Mn  0.70240385  0.05995295  0.37142068     1.18440
C1001       C  0.93567917  0.07016530  0.36340976     0.97030
C1002       C  0.67602209  0.33331194  0.25698162     0.97690
N1003       N  0.69085331  0.01280838  0.51891678    -0.07470
N1004       N  0.69779115  0.02742760  0.55647723    -0.63770
N1005       N  0.69597276  0.27738858  0.46739738    -0.06270
N1006       N  0.70224070  0.24839859  0.47019587    -0.64450
N1007       N  0.72848716  0.31006623  0.46792526    -0.06970
N1008       N  0.75760367  0.30399130  0.47102432    -0.64040
N1009       N  0.99185246  0.31320459  0.51830616    -0.05870
N1010       N  0.97633444  0.30467970  0.55537337    -0.64730
Mn1011     Mn  0.72970207  0.03179470  0.46529214     1.10660
C1012       C  0.00088430  0.00132833  0.57881294     0.98250
C1013       C  0.74080644  0.26538201  0.47240594     0.98330
N1014       N  0.94633674  0.24896570  0.37481739    -0.06980
N1015       N  0.93090192  0.21960855  0.34918056    -0.62350
N1016       N  0.91916234  0.27479455  0.45935325    -0.06300
N1017       N  0.88981736  0.25951502  0.48511514    -0.59080
N1018       N  0.90996630  0.28622553  0.42528839    -0.07610
N1019       N  0.87464481  0.27973628  0.42749827    -0.61920
N1020       N  0.95761575  0.23962433  0.40888720    -0.06600
N1021       N  0.95090780  0.20423758  0.40679005    -0.59110
Mn1022     Mn  0.94671005  0.30375472  0.37038445     1.20190
Mn1023     Mn  0.97410209  0.27555872  0.46414362     1.10090
Cl1024     Cl  0.67156326  0.00110140  0.41780993    -0.87080
C1025       C  0.93481034  0.19226131  0.36925585     0.95260
C1026       C  0.86259285  0.26361716  0.46511268     0.95050
C1027       C  0.99761595  0.00309579  0.71129861    -0.06580
C1028       C  0.64968522  0.30167356  0.69016589    -0.34010
C1029       C  0.65050151  0.30087354  0.64712535     0.35240
C1030       C  0.99859884  0.00184118  0.62425365    -0.06940
C1031       C  0.01276510  0.03666412  0.64529460    -0.33910
C1032       C  0.01216549  0.03742834  0.68859036     0.35150
H1033       H  0.63900580  0.27503577  0.70711377     0.15520
O1034       O  0.63836941  0.26650867  0.62786776    -0.61400
H1035       H  0.02427195  0.06327402  0.62813800     0.15530
O1036       O  0.02581235  0.07177748  0.70835553    -0.61500
H1037       H  0.00306937  0.07457181  0.71279963     0.42530
H1038       H  0.66161137  0.26427755  0.62508856     0.42480
C1039       C  0.67808856  0.32943720  0.12408588    -0.06580
C1040       C  0.70574240  0.02853285  0.14528655    -0.34010
C1041       C  0.70643224  0.02970829  0.18845270     0.35240
C1042       C  0.67901608  0.33137542  0.21149729    -0.06940
C1043       C  0.98580816  0.29827110  0.19033328    -0.33910
C1044       C  0.98530057  0.29703532  0.14710186     0.35150
H1045       H  0.72621762  0.05377818  0.12840027     0.15520
O1046       O  0.73274974  0.06284438  0.20752241    -0.61400
H1047       H  0.96472485  0.27342959  0.20729911     0.15530
O1048       O  0.95830937  0.26438440  0.12782104    -0.61500
H1049       H  0.97089922  0.24902970  0.12337778     0.42530
H1050       H  0.75586328  0.06047569  0.21099701     0.42480
C1051       C  0.85401213  0.42397763  0.97622312     0.02020
C1052       C  0.87429306  0.46399979  0.97890961    -0.14130
C1053       C  0.91436466  0.48412734  0.97726002    -0.00480
C1054       C  0.93417404  0.46395756  0.97587058    -0.12660
C1055       C  0.91419701  0.42376260  0.97531623     0.02010
C1056       C  0.87400124  0.40397051  0.97483411    -0.12080
H1057       H  0.85893440  0.47956908  0.97704522     0.07600
H1058       H  0.96509385  0.47971966  0.97332279     0.05130
H1059       H  0.85817416  0.37312318  0.97154287     0.04980
C1060       C  0.85445344  0.42478733  0.35913348     0.02020
C1061       C  0.87473891  0.46483564  0.35646272    -0.14130
C1062       C  0.91481121  0.48494209  0.35816847    -0.00480
C1063       C  0.93461147  0.46474990  0.35959552    -0.12660
C1064       C  0.91463046  0.42454902  0.36012743     0.02010
C1065       C  0.87443614  0.40475735  0.36055123    -0.12080
H1066       H  0.85938782  0.48039325  0.35830678     0.07600
H1067       H  0.96553316  0.48048441  0.36218376     0.05130
H1068       H  0.85860942  0.37387980  0.36383619     0.04980
C1069       C  0.82127765  0.57759307  0.85876470     0.02020
C1070       C  0.80130803  0.59763019  0.86007582    -0.14130
C1071       C  0.76110937  0.57785400  0.85973198    -0.00480
C1072       C  0.74111617  0.53765099  0.85936634    -0.12660
C1073       C  0.76090002  0.51745574  0.85804211     0.02010
C1074       C  0.80096674  0.53755832  0.85626133    -0.12080
H1075       H  0.81715243  0.62848850  0.86324654     0.07600
H1076       H  0.71020349  0.52190616  0.86200832     0.05130
H1077       H  0.81631190  0.52197783  0.85817734     0.04980
C1078       C  0.82201095  0.57737034  0.47667052     0.02020
C1079       C  0.80204440  0.59742381  0.47532562    -0.14130
C1080       C  0.76184728  0.57765260  0.47572189    -0.00380
C1081       C  0.74184556  0.53744834  0.47618279    -0.12660
C1082       C  0.76162301  0.51723339  0.47753797     0.02010
C1083       C  0.80169711  0.53731617  0.47926316    -0.12080
H1084       H  0.81788444  0.62830464  0.47208554     0.07600
H1085       H  0.71092490  0.52173053  0.47357756     0.05130
H1086       H  0.81702957  0.52174309  0.47736620     0.04980
N1087       N  0.98498513  0.65473438  0.01864980    -0.07230
N1088       N  0.97807138  0.63936115  0.05596402    -0.59350
N1089       N  0.98004038  0.39071125  0.96735568    -0.06910
N1090       N  0.97380822  0.41970286  0.97009779    -0.61480
N1091       N  0.94749186  0.35806020  0.96765682    -0.06510
N1092       N  0.91839955  0.36414417  0.97058296    -0.59330
N1093       N  0.68419255  0.35412297  0.01827377    -0.06190
N1094       N  0.69996057  0.36160330  0.05531094    -0.61830
C1095       C  0.67527139  0.66454786  0.07852456     0.94950
C1096       C  0.93523488  0.40273424  0.97207147     0.94720
N1097       N  0.72935587  0.41995431  0.87474341    -0.07420
N1098       N  0.74467230  0.44951548  0.84907574    -0.59930
N1099       N  0.75678237  0.39325119  0.95916756    -0.05540
N1100       N  0.78622307  0.40830789  0.98486061    -0.61180
N1101       N  0.76587919  0.38220967  0.92501408    -0.07450
N1102       N  0.80123043  0.38873812  0.92710398    -0.60200
N1103       N  0.71829129  0.42902711  0.90889885    -0.05180
N1104       N  0.72503396  0.46445123  0.90682171    -0.61270
Mn1105     Mn  0.70190106  0.39249050  0.96414013     1.18440
C1106       C  0.74092411  0.47672094  0.86921574     0.97030
C1107       C  0.81340092  0.40447247  0.96472992     0.97690
N1108       N  0.90934287  0.61935610  0.91009453    -0.07470
N1109       N  0.87402512  0.61290520  0.90788304    -0.63770
N1110       N  0.95701250  0.57256285  0.92650688    -0.06270
N1111       N  0.95035419  0.53717543  0.92863095    -0.64450
N1112       N  0.94577311  0.58159493  0.96055942    -0.06970
N1113       N  0.93042430  0.55202683  0.98621972    -0.64040
N1114       N  0.91845190  0.60818153  0.87605370    -0.05870
N1115       N  0.88905383  0.59312526  0.85029941    -0.64730
Mn1116     Mn  0.94616102  0.63634389  0.96499689     1.10660
C1117       C  0.86188668  0.59709106  0.87028567     0.98250
C1118       C  0.93433606  0.52487351  0.96617015     0.98330
N1119       N  0.72774159  0.64352646  0.86744190    -0.06980
N1120       N  0.75685863  0.63748418  0.86436810    -0.62350
N1121       N  0.99094221  0.64712275  0.81715093    -0.06300
N1122       N  0.97529332  0.63898922  0.78010518    -0.59080
N1123       N  0.68988884  0.34677901  0.81658761    -0.07610
N1124       N  0.69662954  0.36184567  0.77908850    -0.61920
N1125       N  0.69523323  0.61084072  0.86797001    -0.06600
N1126       N  0.70150430  0.58187890  0.86519534    -0.59110
Mn1127     Mn  0.72895148  0.36523223  0.87016139     1.20190
Mn1128     Mn  0.97336856  0.60898000  0.87126067     1.10090
Cl1129     Cl  0.67093863  0.33410005  0.91764458    -0.87080
C1130       C  0.74006701  0.59888634  0.86299808     0.95260
C1131       C  0.99959011  0.33604777  0.75677066     0.95050
N1132       N  0.76647701  0.38263350  0.41042660    -0.07230
N1133       N  0.80179760  0.38911774  0.40827241    -0.59350
N1134       N  0.71886324  0.42925884  0.42670009    -0.06910
N1135       N  0.72558762  0.46465393  0.42881025    -0.61480
N1136       N  0.73005760  0.41988514  0.46081158    -0.06510
N1137       N  0.74544570  0.44921472  0.48648275    -0.59330
N1138       N  0.75730635  0.39402740  0.37631772    -0.06190
N1139       N  0.78666598  0.40928015  0.35058130    -0.61830
C1140       C  0.81387203  0.40519902  0.37064777     0.94950
C1141       C  0.74160460  0.47659098  0.46639106     0.94720
N1142       N  0.94798307  0.35880861  0.36778892    -0.07420
N1143       N  0.91886978  0.36489387  0.36482069    -0.59930
N1144       N  0.68468315  0.35551538  0.31726293    -0.05540
N1145       N  0.70057477  0.36342476  0.28033910    -0.61180
N1146       N  0.98553166  0.65607952  0.31673701    -0.07450
N1147       N  0.97879861  0.64108661  0.27939193    -0.60200
N1148       N  0.98051467  0.39147260  0.36819708    -0.05180
N1149       N  0.97425259  0.42047160  0.36547355    -0.61270
Mn1150     Mn  0.70240385  0.39328630  0.37142072     1.18440
C1151       C  0.93567917  0.40349863  0.36340977     0.97030
C1152       C  0.67602209  0.66664527  0.25698162     0.97690
N1153       N  0.69085330  0.34614170  0.51891680    -0.07470
N1154       N  0.69779113  0.36076092  0.55647724    -0.63770
N1155       N  0.69597276  0.61072191  0.46739738    -0.06270
N1156       N  0.70224070  0.58173193  0.47019588    -0.64450
N1157       N  0.72848716  0.64339956  0.46792527    -0.06970
N1158       N  0.75760368  0.63732464  0.47102433    -0.64040
N1159       N  0.99185246  0.64653792  0.51830616    -0.05870
N1160       N  0.97633444  0.63801303  0.55537337    -0.64730
Mn1161     Mn  0.72970207  0.36512803  0.46529216     1.10660
C1162       C  0.00088430  0.33466165  0.57881295     0.98250
C1163       C  0.74080644  0.59871535  0.47240595     0.98330
N1164       N  0.94633674  0.58229903  0.37481740    -0.06980
N1165       N  0.93090192  0.55294189  0.34918057    -0.62350
N1166       N  0.91916234  0.60812788  0.45935325    -0.06300
N1167       N  0.88981736  0.59284835  0.48511515    -0.59080
N1168       N  0.90996630  0.61955886  0.42528839    -0.07610
N1169       N  0.87464480  0.61306961  0.42749827    -0.61920
N1170       N  0.95761575  0.57295766  0.40888721    -0.06600
N1171       N  0.95090780  0.53757092  0.40679005    -0.59110
Mn1172     Mn  0.94671005  0.63708805  0.37038445     1.20190
Mn1173     Mn  0.97410209  0.60889206  0.46414363     1.10090
Cl1174     Cl  0.67156326  0.33443473  0.41780995    -0.87080
C1175       C  0.93481034  0.52559464  0.36925585     0.95260
C1176       C  0.86259285  0.59695049  0.46511269     0.95050
C1177       C  0.99761594  0.33642911  0.71129861    -0.06580
C1178       C  0.64968522  0.63500689  0.69016589    -0.34010
C1179       C  0.65050151  0.63420687  0.64712536     0.35240
C1180       C  0.99859883  0.33517450  0.62425365    -0.06940
C1181       C  0.01276509  0.36999744  0.64529460    -0.33910
C1182       C  0.01216547  0.37076166  0.68859036     0.35150
H1183       H  0.63900580  0.60836910  0.70711377     0.15520
O1184       O  0.63836941  0.59984200  0.62786776    -0.61400
H1185       H  0.02427192  0.39660734  0.62813800     0.15530
O1186       O  0.02581231  0.40511080  0.70835553    -0.61500
H1187       H  0.00306933  0.40790512  0.71279963     0.42530
H1188       H  0.66161137  0.59761088  0.62508856     0.42480
C1189       C  0.67808856  0.66277053  0.12408588    -0.06580
C1190       C  0.70574222  0.36186640  0.14528655    -0.34010
C1191       C  0.70643204  0.36304185  0.18845270     0.35240
C1192       C  0.67901608  0.66470875  0.21149729    -0.06940
C1193       C  0.98580816  0.63160444  0.19033328    -0.33910
C1194       C  0.98530057  0.63036866  0.14710187     0.35150
H1195       H  0.72621732  0.38711179  0.12840026     0.15520
O1196       O  0.73274935  0.39617804  0.20752240    -0.61400
H1197       H  0.96472484  0.60676292  0.20729911     0.15530
O1198       O  0.95830937  0.59771773  0.12782104    -0.61500
H1199       H  0.97089922  0.58236304  0.12337778     0.42530
H1200       H  0.75586305  0.39380961  0.21099694     0.42480
C1201       C  0.85401213  0.75731096  0.97622312     0.02020
C1202       C  0.87429306  0.79733312  0.97890960    -0.14130
C1203       C  0.91436467  0.81746067  0.97726002    -0.00480
C1204       C  0.93417404  0.79729089  0.97587057    -0.12660
C1205       C  0.91419701  0.75709594  0.97531623     0.02010
C1206       C  0.87400124  0.73730384  0.97483411    -0.12080
H1207       H  0.85893440  0.81290241  0.97704521     0.07600
H1208       H  0.96509386  0.81305299  0.97332278     0.05130
H1209       H  0.85817416  0.70645652  0.97154287     0.04980
C1210       C  0.85445344  0.75812067  0.35913348     0.02020
C1211       C  0.87473891  0.79816897  0.35646272    -0.14130
C1212       C  0.91481121  0.81827542  0.35816848    -0.00480
C1213       C  0.93461147  0.79808324  0.35959552    -0.12660
C1214       C  0.91463046  0.75788235  0.36012743     0.02010
C1215       C  0.87443614  0.73809068  0.36055123    -0.12080
H1216       H  0.85938782  0.81372658  0.35830679     0.07600
H1217       H  0.96553316  0.81381774  0.36218376     0.05130
H1218       H  0.85860942  0.70721313  0.36383619     0.04980
C1219       C  0.82127765  0.91092640  0.85876470     0.02020
C1220       C  0.80130803  0.93096352  0.86007582    -0.14130
C1221       C  0.76110937  0.91118734  0.85973198    -0.00480
C1222       C  0.74111617  0.87098432  0.85936634    -0.12660
C1223       C  0.76090002  0.85078908  0.85804211     0.02010
C1224       C  0.80096674  0.87089166  0.85626133    -0.12080
H1225       H  0.81715243  0.96182184  0.86324653     0.07600
H1226       H  0.71020349  0.85523950  0.86200832     0.05130
H1227       H  0.81631190  0.85531116  0.85817734     0.04980
C1228       C  0.82201095  0.91070367  0.47667051     0.02020
C1229       C  0.80204440  0.93075714  0.47532561    -0.14130
C1230       C  0.76184728  0.91098594  0.47572189    -0.00380
C1231       C  0.74184556  0.87078168  0.47618278    -0.12660
C1232       C  0.76162301  0.85056673  0.47753796     0.02010
C1233       C  0.80169711  0.87064950  0.47926316    -0.12080
H1234       H  0.81788444  0.96163798  0.47208554     0.07600
H1235       H  0.71092490  0.85506386  0.47357756     0.05130
H1236       H  0.81702957  0.85507643  0.47736620     0.04980
N1237       N  0.98498513  0.98806771  0.01864980    -0.07230
N1238       N  0.97807138  0.97269448  0.05596401    -0.59350
N1239       N  0.98004038  0.72404458  0.96735569    -0.06910
N1240       N  0.97380822  0.75303620  0.97009779    -0.61480
N1241       N  0.94749186  0.69139353  0.96765682    -0.06510
N1242       N  0.91839955  0.69747751  0.97058296    -0.59330
N1243       N  0.68419255  0.68745631  0.01827377    -0.06190
N1244       N  0.69996057  0.69493664  0.05531094    -0.61830
C1245       C  0.67527139  0.99788112  0.07852456     0.94950
C1246       C  0.93523488  0.73606758  0.97207147     0.94720
N1247       N  0.72935588  0.75328764  0.87474341    -0.07420
N1248       N  0.74467230  0.78284882  0.84907574    -0.59930
N1249       N  0.75678237  0.72658452  0.95916756    -0.05540
N1250       N  0.78622307  0.74164122  0.98486061    -0.61180
N1251       N  0.76587920  0.71554300  0.92501408    -0.07450
N1252       N  0.80123044  0.72207145  0.92710398    -0.60200
N1253       N  0.71829129  0.76236044  0.90889885    -0.05180
N1254       N  0.72503396  0.79778456  0.90682171    -0.61270
Mn1255     Mn  0.70190106  0.72582384  0.96414013     1.18440
C1256       C  0.74092411  0.81005428  0.86921574     0.97030
C1257       C  0.81340092  0.73780581  0.96472992     0.97690
N1258       N  0.90934287  0.95268943  0.91009453    -0.07470
N1259       N  0.87402512  0.94623853  0.90788303    -0.63770
N1260       N  0.95701250  0.90589618  0.92650687    -0.06270
N1261       N  0.95035419  0.87050876  0.92863095    -0.64450
N1262       N  0.94577311  0.91492826  0.96055941    -0.06970
N1263       N  0.93042430  0.88536016  0.98621971    -0.64040
N1264       N  0.91845190  0.94151486  0.87605370    -0.05870
N1265       N  0.88905383  0.92645860  0.85029940    -0.64730
Mn1266     Mn  0.94616103  0.96967722  0.96499689     1.10660
C1267       C  0.86188669  0.93042439  0.87028567     0.98250
C1268       C  0.93433606  0.85820685  0.96617014     0.98330
N1269       N  0.72774160  0.97685979  0.86744190    -0.06980
N1270       N  0.75685863  0.97081751  0.86436810    -0.62350
N1271       N  0.99094222  0.98045609  0.81715093    -0.06300
N1272       N  0.97529332  0.97232256  0.78010518    -0.59080
N1273       N  0.68988884  0.68011234  0.81658761    -0.07610
N1274       N  0.69662954  0.69517901  0.77908850    -0.61920
N1275       N  0.69523323  0.94417405  0.86797001    -0.06600
N1276       N  0.70150430  0.91521224  0.86519533    -0.59110
Mn1277     Mn  0.72895148  0.69856556  0.87016139     1.20190
Mn1278     Mn  0.97336856  0.94231333  0.87126066     1.10090
Cl1279     Cl  0.67093863  0.66743338  0.91764458    -0.87080
C1280       C  0.74006701  0.93221968  0.86299807     0.95260
C1281       C  0.99959011  0.66938111  0.75677066     0.95050
N1282       N  0.76647701  0.71596684  0.41042660    -0.07230
N1283       N  0.80179760  0.72245107  0.40827241    -0.59350
N1284       N  0.71886324  0.76259217  0.42670009    -0.06910
N1285       N  0.72558762  0.79798726  0.42881025    -0.61480
N1286       N  0.73005760  0.75321848  0.46081158    -0.06510
N1287       N  0.74544570  0.78254805  0.48648275    -0.59330
N1288       N  0.75730635  0.72736073  0.37631772    -0.06190
N1289       N  0.78666598  0.74261349  0.35058130    -0.61830
C1290       C  0.81387203  0.73853236  0.37064777     0.94950
C1291       C  0.74160460  0.80992432  0.46639106     0.94720
N1292       N  0.94798307  0.69214194  0.36778892    -0.07420
N1293       N  0.91886978  0.69822720  0.36482069    -0.59930
N1294       N  0.68468315  0.68884871  0.31726293    -0.05540
N1295       N  0.70057477  0.69675809  0.28033910    -0.61180
N1296       N  0.98553167  0.98941285  0.31673701    -0.07450
N1297       N  0.97879861  0.97441994  0.27939192    -0.60200
N1298       N  0.98051467  0.72480594  0.36819708    -0.05180
N1299       N  0.97425259  0.75380494  0.36547355    -0.61270
Mn1300     Mn  0.70240385  0.72661963  0.37142072     1.18440
C1301       C  0.93567917  0.73683197  0.36340977     0.97030
C1302       C  0.67602211  0.99997852  0.25698162     0.97690
N1303       N  0.69085330  0.67947503  0.51891680    -0.07470
N1304       N  0.69779113  0.69409425  0.55647725    -0.63770
N1305       N  0.69597276  0.94405525  0.46739737    -0.06270
N1306       N  0.70224070  0.91506526  0.47019587    -0.64450
N1307       N  0.72848717  0.97673290  0.46792525    -0.06970
N1308       N  0.75760368  0.97065797  0.47102432    -0.64040
N1309       N  0.99185247  0.97987126  0.51830616    -0.05870
N1310       N  0.97633445  0.97134637  0.55537337    -0.64730
Mn1311     Mn  0.72970207  0.69846137  0.46529216     1.10660
C1312       C  0.00088430  0.66799499  0.57881295     0.98250
C1313       C  0.74080644  0.93204868  0.47240595     0.98330
N1314       N  0.94633674  0.91563236  0.37481740    -0.06980
N1315       N  0.93090192  0.88627522  0.34918057    -0.62350
N1316       N  0.91916234  0.94146122  0.45935325    -0.06300
N1317       N  0.88981736  0.92618169  0.48511515    -0.59080
N1318       N  0.90996630  0.95289220  0.42528839    -0.07610
N1319       N  0.87464481  0.94640294  0.42749827    -0.61920
N1320       N  0.95761575  0.90629099  0.40888721    -0.06600
N1321       N  0.95090780  0.87090425  0.40679005    -0.59110
Mn1322     Mn  0.94671005  0.97042138  0.37038445     1.20190
Mn1323     Mn  0.97410209  0.94222539  0.46414362     1.10090
Cl1324     Cl  0.67156326  0.66776806  0.41780995    -0.87080
C1325       C  0.93481033  0.85892798  0.36925586     0.95260
C1326       C  0.86259286  0.93028382  0.46511269     0.95050
C1327       C  0.99761594  0.66976245  0.71129861    -0.06580
C1328       C  0.64968527  0.96834025  0.69016588    -0.34010
C1329       C  0.65050155  0.96754022  0.64712535     0.35240
C1330       C  0.99859883  0.66850783  0.62425366    -0.06940
C1331       C  0.01276509  0.70333077  0.64529461    -0.33910
C1332       C  0.01216548  0.70409499  0.68859036     0.35150
H1333       H  0.63900585  0.94170245  0.70711376     0.15520
O1334       O  0.63836946  0.93317536  0.62786776    -0.61400
H1335       H  0.02427194  0.72994068  0.62813801     0.15530
O1336       O  0.02581234  0.73844414  0.70835553    -0.61500
H1337       H  0.00306936  0.74123847  0.71279963     0.42530
H1338       H  0.66161142  0.93094424  0.62508855     0.42480
C1339       C  0.67808858  0.99610375  0.12408588    -0.06580
C1340       C  0.70574222  0.69519974  0.14528655    -0.34010
C1341       C  0.70643204  0.69637519  0.18845270     0.35240
C1342       C  0.67901611  0.99804196  0.21149729    -0.06940
C1343       C  0.98580815  0.96493776  0.19033328    -0.33910
C1344       C  0.98530056  0.96370198  0.14710186     0.35150
H1345       H  0.72621731  0.72044514  0.12840026     0.15520
O1346       O  0.73274934  0.72951138  0.20752240    -0.61400
H1347       H  0.96472483  0.94009625  0.20729911     0.15530
O1348       O  0.95830935  0.93105106  0.12782104    -0.61500
H1349       H  0.97089920  0.91569636  0.12337777     0.42530
H1350       H  0.75586304  0.72714296  0.21099694     0.42480
loop_ 
_geom_bond_atom_site_label_1 
_geom_bond_atom_site_label_2 
_geom_bond_distance 
_geom_bond_site_symmetry_2 
_ccdc_geom_bond_type 
C1            C2   1.402       .  A
C1            C6   1.402       .  A
C1           C57   1.467       .  S
C2            C3   1.402       .  A
C2            H7   1.085       .  S
C3            C4   1.401       .  A
C3           C68   1.467       .  S
C4            C5   1.405       .  A
C4            H8   1.084       .  S
C5            C6   1.405       .  A
C5           C46   1.478       .  S
C6            H9   1.084       .  S
C10          C11   1.402       .  A
C10          C15   1.402       .  A
C10          C90   1.467       .  S
C11          C12   1.402       .  A
C11          H16   1.085       .  S
C12          C13   1.401       .  A
C12         C125   1.467       .  S
C13          C14   1.405       .  A
C13          H17   1.084       .  S
C14          C15   1.405       .  A
C14         C101   1.478       .  S
C15          H18   1.084       .  S
C19          C20   1.402       .  A
C19          C24   1.402       .  A
C19          C67   1.468       .  S
C20          C21   1.405       .  A
C20          H25   1.084       .  S
C21          C22   1.405       .  A
C21          C80   1.478       .  S
C22          C23   1.401       .  A
C22          H26   1.084       .  S
C23          C24   1.402       .  A
C23          C56   1.467       .  S
C24          H27   1.085       .  S
C28          C29   1.402       .  A
C28          C33   1.402       .  A
C28         C126   1.468       .  S
C29          C30   1.405       .  A
C29          H34   1.084       .  S
C30          C31   1.405       .  A
C30         C113   1.478       .  S
C31          C32   1.401       .  A
C31          H35   1.084       .  S
C32          C33   1.402       .  A
C32          C91   1.467       .  S
C33          H36   1.085       .  S
N37          N38   1.321       .  A
N37         N643   1.316       .  A
N37         Mn66   2.204   1_554  S
N38         C495   1.354       .  A
N39          N41   1.315       .  A
N39          N40   1.320       .  A
N39        Mn505   2.198       .  S
N40          C46   1.353       .  A
N41          N42   1.320       .  A
N41        Mn366   2.200   1_545  S
N42          C46   1.354       .  A
N43          N44   1.320       .  A
N43        N1237   1.316   1_445  A
N43         Mn55   2.203   1_554  S
N44         C345   1.354   1_545  A
C45         C139   1.484       .  S
C45         N938   1.354   1_455  A
C45         N194   1.354       .  A
N47          N53   1.316       .  A
N47          N48   1.323       .  A
N47         Mn77   2.209       .  S
N48          C56   1.354       .  A
N49          N50   1.323       .  A
N49          N51   1.316       .  A
N49         Mn55   2.209       .  S
N50          C57   1.354       .  A
N51          N52   1.318       .  A
N51         Mn77   2.196       .  S
N52          C57   1.350       .  A
N53          N54   1.317       .  A
N53         Mn55   2.194       .  S
N54          C56   1.349       .  A
Mn55        N939   2.198   1_455  S
Mn55        Cl79   2.543       .  S
N58          N59   1.318       .  A
N58          N64   1.316       .  A
N58         Mn66   2.195       .  S
N59          C67   1.350       .  A
N60          N62   1.316       .  A
N60          N61   1.317       .  A
N60         Mn78   2.192       .  S
N61          C68   1.349       .  A
N62          N63   1.323       .  A
N62         Mn66   2.210       .  S
N63          C68   1.355       .  A
N64          N65   1.323       .  A
N64         Mn78   2.210       .  S
N65          C67   1.354       .  A
Mn66        N191   2.200       .  S
Mn66       Cl679   2.547       .  S
N69          N70   1.321       .  A
N69          N75   1.315       .  A
N69        Mn227   2.202       .  S
N70          C80   1.354       .  A
N71          N72   1.318       .  A
N71         N673   1.316       .  A
N71         Mn78   2.198       .  S
N72         C231   1.352       .  A
N73          N74   1.322       .  A
N73        N1271   1.316   1_445  A
N73         Mn77   2.207       .  S
N74         C981   1.354   1_455  A
N75          N76   1.320       .  A
N75        Mn978   2.197   1_455  S
N76          C80   1.353       .  A
Mn77        N369   2.202   1_545  S
Mn77        Cl79   2.547       .  S
Mn78        N525   2.197       .  S
Mn78       Cl679   2.542       .  S
Cl79      Mn1266   2.547   1_445  S
Cl79      Mn1278   2.542   1_445  S
C81         C127   1.475       .  S
C81         N372   1.352   1_545  A
C81         N524   1.354       .  A
N82          N83   1.318       .  A
N82          N88   1.316       .  A
N82        Mn111   2.195       .  S
N83          C90   1.350       .  A
N84          N86   1.316       .  A
N84          N85   1.317       .  A
N84        Mn100   2.194       .  S
N85          C91   1.349       .  A
N86          N87   1.323       .  A
N86        Mn111   2.210       .  S
N87          C91   1.354       .  A
N88          N89   1.323       .  A
N88        Mn100   2.209       .  S
N89          C90   1.354       .  A
N92          N98   1.315       .  A
N92          N93   1.321       .  A
N92        Mn422   2.201   1_545  S
N93         C101   1.354       .  A
N94          N95   1.319       .  A
N94        N1296   1.316   1_445  A
N94        Mn100   2.201       .  S
N95         C402   1.353   1_545  A
N96          N97   1.321       .  A
N96         N694   1.316       .  A
N96        Mn122   2.206       .  S
N97         C552   1.355       .  A
N98          N99   1.320       .  A
N98        Mn550   2.198       .  S
N99         C101   1.353       .  A
Mn100       N998   2.198   1_455  S
Mn100      Cl124   2.542       .  S
C102        C142   1.484       .  S
C102        N245   1.353       .  A
C102        N997   1.355   1_455  A
N103        N104   1.322       .  A
N103       N1309   1.316   1_445  A
N103       Mn111   2.206       .  S
N104       C1012   1.354       .  A
N105        N107   1.315       .  A
N105        N106   1.320       .  A
N105      Mn1023   2.197   1_455  S
N106        C113   1.353       .  A
N107        N108   1.321       .  A
N107       Mn261   2.202       .  S
N108        C113   1.354       .  A
N109        N110   1.318       .  A
N109        N703   1.316       .  A
N109       Mn123   2.199       .  S
N110        C262   1.352       .  A
Mn111       N407   2.202   1_545  S
Mn111      Cl124   2.548       .  S
C112        C130   1.476       .  S
C112        N554   1.354       .  A
C112        N410   1.352   1_545  A
N114        N115   1.323       .  A
N114        N120   1.316       .  A
N114       Mn122   2.210       .  S
N115        C125   1.355       .  A
N116        N117   1.323       .  A
N116        N118   1.316       .  A
N116       Mn123   2.210       .  S
N117        C126   1.354       .  A
N118        N119   1.318       .  A
N118       Mn122   2.195       .  S
N119        C126   1.350       .  A
N120        N121   1.317       .  A
N120       Mn123   2.192       .  S
N121        C125   1.349       .  A
Mn122       N242   2.201       .  S
Mn122      Cl724   2.548       .  S
Mn123       N555   2.197       .  S
Mn123      Cl724   2.541       .  S
Cl124     Mn1322   2.548   1_445  S
Cl124     Mn1323   2.541   1_445  S
C127        C132   1.408       .  A
C127        C878   1.402   1_545  A
C128        C129   1.396       .  A
C128       C1177   1.402       .  A
C128        H133   1.084       .  S
C129       C1180   1.409       .  A
C129        O134   1.372       .  S
C130        C131   1.404       .  A
C130        C879   1.409   1_545  A
C131        C132   1.403       .  A
C131        H135   1.083       .  S
C132        O136   1.371       .  S
O134        H138   0.992       .  S
O136        H137   0.992       .  S
C139        C290   1.404       .  A
C139       C1044   1.411   1_455  A
C140        C141   1.399       .  A
C140        C439   1.404   1_545  A
C140        H145   1.083       .  S
C141        C442   1.412   1_545  A
C141        O146   1.371       .  S
C142        C291   1.412       .  A
C142       C1043   1.405   1_455  A
C143        C144   1.401       .  A
C143        C592   1.405       .  A
C143        H147   1.083       .  S
C144        C589   1.411       .  A
C144        O148   1.371       .  S
O146        H150   0.992       .  S
O148        H149   0.992       .  S
C151        C152   1.402       .  A
C151        C156   1.402       .  A
C151        C207   1.467       .  S
C152        C153   1.402       .  A
C152        H157   1.085       .  S
C153        C154   1.401       .  A
C153        C218   1.467       .  S
C154        C155   1.405       .  A
C154        H158   1.084       .  S
C155        C156   1.405       .  A
C155        C196   1.478       .  S
C156        H159   1.084       .  S
C160        C161   1.402       .  A
C160        C165   1.402       .  A
C160        C240   1.467       .  S
C161        C162   1.402       .  A
C161        H166   1.085       .  S
C162        C163   1.401       .  A
C162        C275   1.467       .  S
C163        C164   1.405       .  A
C163        H167   1.084       .  S
C164        C165   1.405       .  A
C164        C251   1.478       .  S
C165        H168   1.084       .  S
C169        C170   1.402       .  A
C169        C174   1.402       .  A
C169        C217   1.468       .  S
C170        C171   1.405       .  A
C170        H175   1.084       .  S
C171        C172   1.405       .  A
C171        C230   1.478       .  S
C172        C173   1.401       .  A
C172        H176   1.084       .  S
C173        C174   1.402       .  A
C173        C206   1.467       .  S
C174        H177   1.085       .  S
C178        C179   1.402       .  A
C178        C183   1.402       .  A
C178        C276   1.468       .  S
C179        C180   1.405       .  A
C179        H184   1.084       .  S
C180        C181   1.405       .  A
C180        C263   1.478       .  S
C181        C182   1.401       .  A
C181        H185   1.084       .  S
C182        C183   1.402       .  A
C182        C241   1.467       .  S
C183        H186   1.085       .  S
N187        N188   1.321       .  A
N187        N793   1.316       .  A
N187       Mn216   2.204   1_554  S
N188        C645   1.354       .  A
N189        N191   1.315       .  A
N189        N190   1.320       .  A
N189       Mn655   2.198       .  S
N190        C196   1.353       .  A
N191        N192   1.320       .  A
N192        C196   1.354       .  A
N193        N937   1.316   1_455  A
N193        N194   1.320       .  A
N193       Mn205   2.203   1_554  S
C195        C289   1.484       .  S
C195       N1088   1.354   1_455  A
C195        N344   1.354       .  A
N197        N203   1.316       .  A
N197        N198   1.323       .  A
N197       Mn227   2.209       .  S
N198        C206   1.354       .  A
N199        N200   1.323       .  A
N199        N201   1.316       .  A
N199       Mn205   2.209       .  S
N200        C207   1.354       .  A
N201        N202   1.318       .  A
N201       Mn227   2.196       .  S
N202        C207   1.350       .  A
N203        N204   1.317       .  A
N203       Mn205   2.194       .  S
N204        C206   1.349       .  A
Mn205      N1089   2.198   1_455  S
Mn205      Cl229   2.543       .  S
N208        N209   1.318       .  A
N208        N214   1.316       .  A
N208       Mn216   2.195       .  S
N209        C217   1.350       .  A
N210        N212   1.316       .  A
N210        N211   1.317       .  A
N210       Mn228   2.192       .  S
N211        C218   1.349       .  A
N212        N213   1.323       .  A
N212       Mn216   2.210       .  S
N213        C218   1.355       .  A
N214        N215   1.323       .  A
N214       Mn228   2.210       .  S
N215        C217   1.354       .  A
Mn216       N341   2.200       .  S
Mn216      Cl829   2.547       .  S
N219        N220   1.321       .  A
N219        N225   1.315       .  A
N219       Mn377   2.202       .  S
N220        C230   1.354       .  A
N221        N222   1.318       .  A
N221        N823   1.316       .  A
N221       Mn228   2.198       .  S
N222        C381   1.352       .  A
N223        N971   1.316   1_455  A
N223        N224   1.322       .  A
N223       Mn227   2.207       .  S
N224       C1131   1.354   1_455  A
N225        N226   1.320       .  A
N225      Mn1128   2.197   1_455  S
N226        C230   1.353       .  A
Mn227      Cl229   2.547       .  S
Mn228       N675   2.197       .  S
Mn228      Cl829   2.542       .  S
Cl229      Mn966   2.547   1_455  S
Cl229      Mn978   2.542   1_455  S
C231        C277   1.475       .  S
C231        N674   1.354       .  A
N232        N233   1.318       .  A
N232        N238   1.316       .  A
N232       Mn261   2.195       .  S
N233        C240   1.350       .  A
N234        N236   1.316       .  A
N234        N235   1.317       .  A
N234       Mn250   2.194       .  S
N235        C241   1.349       .  A
N236        N237   1.323       .  A
N236       Mn261   2.210       .  S
N237        C241   1.354       .  A
N238        N239   1.323       .  A
N238       Mn250   2.209       .  S
N239        C240   1.354       .  A
N242        N248   1.315       .  A
N242        N243   1.321       .  A
N243        C251   1.354       .  A
N244        N245   1.319       .  A
N244        N996   1.316   1_455  A
N244       Mn250   2.201       .  S
N246        N844   1.316       .  A
N246        N247   1.321       .  A
N246       Mn272   2.206       .  S
N247        C702   1.355       .  A
N248        N249   1.320       .  A
N248       Mn700   2.198       .  S
N249        C251   1.353       .  A
Mn250      N1148   2.198   1_455  S
Mn250      Cl274   2.542       .  S
C252        C292   1.484       .  S
C252        N395   1.353       .  A
C252       N1147   1.355   1_455  A
N253        N254   1.322       .  A
N253       N1009   1.316   1_455  A
N253       Mn261   2.206       .  S
N254       C1162   1.354       .  A
N255        N257   1.315       .  A
N255        N256   1.320       .  A
N255      Mn1173   2.197   1_455  S
N256        C263   1.353       .  A
N257        N258   1.321       .  A
N257       Mn411   2.202       .  S
N258        C263   1.354       .  A
N259        N853   1.316       .  A
N259        N260   1.318       .  A
N259       Mn273   2.199       .  S
N260        C412   1.352       .  A
Mn261      Cl274   2.548       .  S
C262        C280   1.476       .  S
C262        N704   1.354       .  A
N264        N265   1.323       .  A
N264        N270   1.316       .  A
N264       Mn272   2.210       .  S
N265        C275   1.355       .  A
N266        N267   1.323       .  A
N266        N268   1.316       .  A
N266       Mn273   2.210       .  S
N267        C276   1.354       .  A
N268        N269   1.318       .  A
N268       Mn272   2.195       .  S
N269        C276   1.350       .  A
N270        N271   1.317       .  A
N270       Mn273   2.192       .  S
N271        C275   1.349       .  A
Mn272       N392   2.201       .  S
Mn272      Cl874   2.548       .  S
Mn273       N705   2.197       .  S
Mn273      Cl874   2.541       .  S
Cl274     Mn1022   2.548   1_455  S
Cl274     Mn1023   2.541   1_455  S
C277        C578   1.402       .  A
C277        C282   1.408       .  A
C278       C1327   1.402       .  A
C278        C279   1.396       .  A
C278        H283   1.084       .  S
C279       C1330   1.409       .  A
C279        O284   1.372       .  S
C280        C579   1.409       .  A
C280        C281   1.404       .  A
C281        C282   1.403       .  A
C281        H285   1.083       .  S
C282        O286   1.371       .  S
O284        H288   0.992       .  S
O286        H287   0.992       .  S
C289        C440   1.404       .  A
C289       C1194   1.411   1_455  A
C290        C291   1.399       .  A
C290        H295   1.083       .  S
C291        O296   1.371       .  S
C292        C441   1.412       .  A
C292       C1193   1.405   1_455  A
C293        C742   1.405       .  A
C293        C294   1.401       .  A
C293        H297   1.083       .  S
C294        C739   1.411       .  A
C294        O298   1.371       .  S
O296        H300   0.992       .  S
O298        H299   0.992       .  S
C301        C302   1.402       .  A
C301        C306   1.402       .  A
C301        C357   1.467       .  S
C302        C303   1.402       .  A
C302        H307   1.085       .  S
C303        C304   1.401       .  A
C303        C368   1.467       .  S
C304        C305   1.405       .  A
C304        H308   1.084       .  S
C305        C306   1.405       .  A
C305        C346   1.478       .  S
C306        H309   1.084       .  S
C310        C311   1.402       .  A
C310        C315   1.402       .  A
C310        C390   1.467       .  S
C311        C312   1.402       .  A
C311        H316   1.085       .  S
C312        C313   1.401       .  A
C312        C425   1.467       .  S
C313        C314   1.405       .  A
C313        H317   1.084       .  S
C314        C315   1.405       .  A
C314        C401   1.478       .  S
C315        H318   1.084       .  S
C319        C320   1.402       .  A
C319        C324   1.402       .  A
C319        C367   1.468       .  S
C320        C321   1.405       .  A
C320        H325   1.084       .  S
C321        C322   1.405       .  A
C321        C380   1.478       .  S
C322        C323   1.401       .  A
C322        H326   1.084       .  S
C323        C324   1.402       .  A
C323        C356   1.467       .  S
C324        H327   1.085       .  S
C328        C329   1.402       .  A
C328        C333   1.402       .  A
C328        C426   1.468       .  S
C329        C330   1.405       .  A
C329        H334   1.084       .  S
C330        C331   1.405       .  A
C330        C413   1.478       .  S
C331        C332   1.401       .  A
C331        H335   1.084       .  S
C332        C333   1.402       .  A
C332        C391   1.467       .  S
C333        H336   1.085       .  S
N337        N338   1.321       .  A
N337        N493   1.316   1_565  A
N337       Mn366   2.204   1_554  S
N338        C795   1.354       .  A
N339        N341   1.315       .  A
N339        N340   1.320       .  A
N339       Mn805   2.198       .  S
N340        C346   1.353       .  A
N341        N342   1.320       .  A
N342        C346   1.354       .  A
N343       N1087   1.316   1_455  A
N343        N344   1.320       .  A
N343       Mn355   2.203   1_554  S
C345        C439   1.484       .  S
C345       N1238   1.354   1_455  A
N347        N353   1.316       .  A
N347        N348   1.323       .  A
N347       Mn377   2.209       .  S
N348        C356   1.354       .  A
N349        N350   1.323       .  A
N349        N351   1.316       .  A
N349       Mn355   2.209       .  S
N350        C357   1.354       .  A
N351        N352   1.318       .  A
N351       Mn377   2.196       .  S
N352        C357   1.350       .  A
N353        N354   1.317       .  A
N353       Mn355   2.194       .  S
N354        C356   1.349       .  A
Mn355      N1239   2.198   1_455  S
Mn355      Cl379   2.543       .  S
N358        N359   1.318       .  A
N358        N364   1.316       .  A
N358       Mn366   2.195       .  S
N359        C367   1.350       .  A
N360        N362   1.316       .  A
N360        N361   1.317       .  A
N360       Mn378   2.192       .  S
N361        C368   1.349       .  A
N362        N363   1.323       .  A
N362       Mn366   2.210       .  S
N363        C368   1.355       .  A
N364        N365   1.323       .  A
N364       Mn378   2.210       .  S
N365        C367   1.354       .  A
Mn366      Cl529   2.547   1_565  S
N369        N370   1.321       .  A
N369        N375   1.315       .  A
N370        C380   1.354       .  A
N371        N372   1.318       .  A
N371        N523   1.316   1_565  A
N371       Mn378   2.198       .  S
N373       N1121   1.316   1_455  A
N373        N374   1.322       .  A
N373       Mn377   2.207       .  S
N374       C1281   1.354   1_455  A
N375        N376   1.320       .  A
N375      Mn1278   2.197   1_455  S
N376        C380   1.353       .  A
Mn377      Cl379   2.547       .  S
Mn378       N825   2.197       .  S
Mn378      Cl529   2.542   1_565  S
Cl379     Mn1116   2.547   1_455  S
Cl379     Mn1128   2.542   1_455  S
C381        C427   1.475       .  S
C381        N824   1.354       .  A
N382        N383   1.318       .  A
N382        N388   1.316       .  A
N382       Mn411   2.195       .  S
N383        C390   1.350       .  A
N384        N386   1.316       .  A
N384        N385   1.317       .  A
N384       Mn400   2.194       .  S
N385        C391   1.349       .  A
N386        N387   1.323       .  A
N386       Mn411   2.210       .  S
N387        C391   1.354       .  A
N388        N389   1.323       .  A
N388       Mn400   2.209       .  S
N389        C390   1.354       .  A
N392        N398   1.315       .  A
N392        N393   1.321       .  A
N393        C401   1.354       .  A
N394        N395   1.319       .  A
N394       N1146   1.316   1_455  A
N394       Mn400   2.201       .  S
N396        N544   1.316   1_565  A
N396        N397   1.321       .  A
N396       Mn422   2.206       .  S
N397        C852   1.355       .  A
N398        N399   1.320       .  A
N398       Mn850   2.198       .  S
N399        C401   1.353       .  A
Mn400      N1298   2.198   1_455  S
Mn400      Cl424   2.542       .  S
C402        C442   1.484       .  S
C402       N1297   1.355   1_455  A
N403        N404   1.322       .  A
N403       N1159   1.316   1_455  A
N403       Mn411   2.206       .  S
N404       C1312   1.354       .  A
N405        N407   1.315       .  A
N405        N406   1.320       .  A
N405      Mn1323   2.197   1_455  S
N406        C413   1.353       .  A
N407        N408   1.321       .  A
N408        C413   1.354       .  A
N409        N553   1.316   1_565  A
N409        N410   1.318       .  A
N409       Mn423   2.199       .  S
Mn411      Cl424   2.548       .  S
C412        C430   1.476       .  S
C412        N854   1.354       .  A
N414        N415   1.323       .  A
N414        N420   1.316       .  A
N414       Mn422   2.210       .  S
N415        C425   1.355       .  A
N416        N417   1.323       .  A
N416        N418   1.316       .  A
N416       Mn423   2.210       .  S
N417        C426   1.354       .  A
N418        N419   1.318       .  A
N418       Mn422   2.195       .  S
N419        C426   1.350       .  A
N420        N421   1.317       .  A
N420       Mn423   2.192       .  S
N421        C425   1.349       .  A
Mn422      Cl574   2.548   1_565  S
Mn423       N855   2.197       .  S
Mn423      Cl574   2.541   1_565  S
Cl424     Mn1172   2.548   1_455  S
Cl424     Mn1173   2.541   1_455  S
C427        C728   1.402       .  A
C427        C432   1.408       .  A
C428       C1027   1.402   1_565  A
C428        C429   1.396       .  A
C428        H433   1.084       .  S
C429       C1030   1.409   1_565  A
C429        O434   1.372       .  S
C430        C729   1.409       .  A
C430        C431   1.404       .  A
C431        C432   1.403       .  A
C431        H435   1.083       .  S
C432        O436   1.371       .  S
O434        H438   0.992       .  S
O436        H437   0.992       .  S
C439       C1344   1.411   1_455  A
C440        C441   1.399       .  A
C440        H445   1.083       .  S
C441        O446   1.371       .  S
C442       C1343   1.405   1_455  A
C443        C892   1.405       .  A
C443        C444   1.401       .  A
C443        H447   1.083       .  S
C444        C889   1.411       .  A
C444        O448   1.371       .  S
O446        H450   0.992       .  S
O448        H449   0.992       .  S
C451        C452   1.402       .  A
C451        C456   1.402       .  A
C451        C507   1.467       .  S
C452        C453   1.402       .  A
C452        H457   1.085       .  S
C453        C454   1.401       .  A
C453        C518   1.467       .  S
C454        C455   1.405       .  A
C454        H458   1.084       .  S
C455        C456   1.405       .  A
C455        C496   1.478       .  S
C456        H459   1.084       .  S
C460        C461   1.402       .  A
C460        C465   1.402       .  A
C460        C540   1.467       .  S
C461        C462   1.402       .  A
C461        H466   1.085       .  S
C462        C463   1.401       .  A
C462        C575   1.467       .  S
C463        C464   1.405       .  A
C463        H467   1.084       .  S
C464        C465   1.405       .  A
C464        C551   1.478       .  S
C465        H468   1.084       .  S
C469        C470   1.402       .  A
C469        C474   1.402       .  A
C469        C517   1.468       .  S
C470        C471   1.405       .  A
C470        H475   1.084       .  S
C471        C472   1.405       .  A
C471        C530   1.478       .  S
C472        C473   1.401       .  A
C472        H476   1.084       .  S
C473        C474   1.402       .  A
C473        C506   1.467       .  S
C474        H477   1.085       .  S
C478        C479   1.402       .  A
C478        C483   1.402       .  A
C478        C576   1.468       .  S
C479        C480   1.405       .  A
C479        H484   1.084       .  S
C480        C481   1.405       .  A
C480        C563   1.478       .  S
C481        C482   1.401       .  A
C481        H485   1.084       .  S
C482        C483   1.402       .  A
C482        C541   1.467       .  S
C483        H486   1.085       .  S
N487        N488   1.321       .  A
N487       N1093   1.316       .  A
N487       Mn516   2.204   1_554  S
N488        C945   1.354       .  A
N489        N491   1.315       .  A
N489        N490   1.320       .  A
N489       Mn955   2.198       .  S
N490        C496   1.353       .  A
N491        N492   1.320       .  A
N491       Mn816   2.200   1_545  S
N492        C496   1.354       .  A
N493        N494   1.320       .  A
N493       Mn505   2.203   1_554  S
N494        C795   1.354   1_545  A
C495        C589   1.484       .  S
C495        N644   1.354       .  A
N497        N503   1.316       .  A
N497        N498   1.323       .  A
N497       Mn527   2.209       .  S
N498        C506   1.354       .  A
N499        N500   1.323       .  A
N499        N501   1.316       .  A
N499       Mn505   2.209       .  S
N500        C507   1.354       .  A
N501        N502   1.318       .  A
N501       Mn527   2.196       .  S
N502        C507   1.350       .  A
N503        N504   1.317       .  A
N503       Mn505   2.194       .  S
N504        C506   1.349       .  A
Mn505      Cl529   2.543       .  S
N508        N509   1.318       .  A
N508        N514   1.316       .  A
N508       Mn516   2.195       .  S
N509        C517   1.350       .  A
N510        N512   1.316       .  A
N510        N511   1.317       .  A
N510       Mn528   2.192       .  S
N511        C518   1.349       .  A
N512        N513   1.323       .  A
N512       Mn516   2.210       .  S
N513        C518   1.355       .  A
N514        N515   1.323       .  A
N514       Mn528   2.210       .  S
N515        C517   1.354       .  A
Mn516       N641   2.200       .  S
Mn516     Cl1129   2.547       .  S
N519        N520   1.321       .  A
N519        N525   1.315       .  A
N519       Mn677   2.202       .  S
N520        C530   1.354       .  A
N521        N522   1.318       .  A
N521       N1123   1.316       .  A
N521       Mn528   2.198       .  S
N522        C681   1.352       .  A
N523        N524   1.322       .  A
N523       Mn527   2.207       .  S
N525        N526   1.320       .  A
N526        C530   1.353       .  A
Mn527       N819   2.202   1_545  S
Mn527      Cl529   2.547       .  S
Mn528       N975   2.197       .  S
Mn528     Cl1129   2.542       .  S
C531        C577   1.475       .  S
C531        N822   1.352   1_545  A
C531        N974   1.354       .  A
N532        N533   1.318       .  A
N532        N538   1.316       .  A
N532       Mn561   2.195       .  S
N533        C540   1.350       .  A
N534        N536   1.316       .  A
N534        N535   1.317       .  A
N534       Mn550   2.194       .  S
N535        C541   1.349       .  A
N536        N537   1.323       .  A
N536       Mn561   2.210       .  S
N537        C541   1.354       .  A
N538        N539   1.323       .  A
N538       Mn550   2.209       .  S
N539        C540   1.354       .  A
N542        N548   1.315       .  A
N542        N543   1.321       .  A
N542       Mn872   2.201   1_545  S
N543        C551   1.354       .  A
N544        N545   1.319       .  A
N544       Mn550   2.201       .  S
N545        C852   1.353   1_545  A
N546       N1144   1.316       .  A
N546        N547   1.321       .  A
N546       Mn572   2.206       .  S
N547       C1002   1.355       .  A
N548        N549   1.320       .  A
N548      Mn1000   2.198       .  S
N549        C551   1.353       .  A
Mn550      Cl574   2.542       .  S
C552        C592   1.484       .  S
C552        N695   1.353       .  A
N553        N554   1.322       .  A
N553       Mn561   2.206       .  S
N555        N557   1.315       .  A
N555        N556   1.320       .  A
N556        C563   1.353       .  A
N557        N558   1.321       .  A
N557       Mn711   2.202       .  S
N558        C563   1.354       .  A
N559       N1153   1.316       .  A
N559        N560   1.318       .  A
N559       Mn573   2.199       .  S
N560        C712   1.352       .  A
Mn561       N857   2.202   1_545  S
Mn561      Cl574   2.548       .  S
C562        C580   1.476       .  S
C562       N1004   1.354       .  A
C562        N860   1.352   1_545  A
N564        N565   1.323       .  A
N564        N570   1.316       .  A
N564       Mn572   2.210       .  S
N565        C575   1.355       .  A
N566        N567   1.323       .  A
N566        N568   1.316       .  A
N566       Mn573   2.210       .  S
N567        C576   1.354       .  A
N568        N569   1.318       .  A
N568       Mn572   2.195       .  S
N569        C576   1.350       .  A
N570        N571   1.317       .  A
N570       Mn573   2.192       .  S
N571        C575   1.349       .  A
Mn572       N692   2.201       .  S
Mn572     Cl1174   2.548       .  S
Mn573      N1005   2.197       .  S
Mn573     Cl1174   2.541       .  S
C577       C1328   1.402   1_545  A
C577        C582   1.408       .  A
C578        C579   1.396       .  A
C578        H583   1.084       .  S
C579        O584   1.372       .  S
C580       C1329   1.409   1_545  A
C580        C581   1.404       .  A
C581        C582   1.403       .  A
C581        H585   1.083       .  S
C582        O586   1.371       .  S
O584        H588   0.992       .  S
O586        H587   0.992       .  S
C589        C740   1.404       .  A
C590        C889   1.404   1_545  A
C590        C591   1.399       .  A
C590        H595   1.083       .  S
C591        C892   1.412   1_545  A
C591        O596   1.371       .  S
C592        C741   1.412       .  A
C593       C1042   1.405       .  A
C593        C594   1.401       .  A
C593        H597   1.083       .  S
C594       C1039   1.411       .  A
C594        O598   1.371       .  S
O596        H600   0.992       .  S
O598        H599   0.992       .  S
C601        C602   1.402       .  A
C601        C606   1.402       .  A
C601        C657   1.467       .  S
C602        C603   1.402       .  A
C602        H607   1.085       .  S
C603        C604   1.401       .  A
C603        C668   1.467       .  S
C604        C605   1.405       .  A
C604        H608   1.084       .  S
C605        C606   1.405       .  A
C605        C646   1.478       .  S
C606        H609   1.084       .  S
C610        C611   1.402       .  A
C610        C615   1.402       .  A
C610        C690   1.467       .  S
C611        C612   1.402       .  A
C611        H616   1.085       .  S
C612        C613   1.401       .  A
C612        C725   1.467       .  S
C613        C614   1.405       .  A
C613        H617   1.084       .  S
C614        C615   1.405       .  A
C614        C701   1.478       .  S
C615        H618   1.084       .  S
C619        C620   1.402       .  A
C619        C624   1.402       .  A
C619        C667   1.468       .  S
C620        C621   1.405       .  A
C620        H625   1.084       .  S
C621        C622   1.405       .  A
C621        C680   1.478       .  S
C622        C623   1.401       .  A
C622        H626   1.084       .  S
C623        C624   1.402       .  A
C623        C656   1.467       .  S
C624        H627   1.085       .  S
C628        C629   1.402       .  A
C628        C633   1.402       .  A
C628        C726   1.468       .  S
C629        C630   1.405       .  A
C629        H634   1.084       .  S
C630        C631   1.405       .  A
C630        C713   1.478       .  S
C631        C632   1.401       .  A
C631        H635   1.084       .  S
C632        C633   1.402       .  A
C632        C691   1.467       .  S
C633        H636   1.085       .  S
N637        N638   1.321       .  A
N637       N1243   1.316       .  A
N637       Mn666   2.204   1_554  S
N638       C1095   1.354       .  A
N639        N641   1.315       .  A
N639        N640   1.320       .  A
N639      Mn1105   2.198       .  S
N640        C646   1.353       .  A
N641        N642   1.320       .  A
N642        C646   1.354       .  A
N643        N644   1.320       .  A
N643       Mn655   2.203   1_554  S
C645        C739   1.484       .  S
C645        N794   1.354       .  A
N647        N653   1.316       .  A
N647        N648   1.323       .  A
N647       Mn677   2.209       .  S
N648        C656   1.354       .  A
N649        N650   1.323       .  A
N649        N651   1.316       .  A
N649       Mn655   2.209       .  S
N650        C657   1.354       .  A
N651        N652   1.318       .  A
N651       Mn677   2.196       .  S
N652        C657   1.350       .  A
N653        N654   1.317       .  A
N653       Mn655   2.194       .  S
N654        C656   1.349       .  A
Mn655      Cl679   2.543       .  S
N658        N659   1.318       .  A
N658        N664   1.316       .  A
N658       Mn666   2.195       .  S
N659        C667   1.350       .  A
N660        N662   1.316       .  A
N660        N661   1.317       .  A
N660       Mn678   2.192       .  S
N661        C668   1.349       .  A
N662        N663   1.323       .  A
N662       Mn666   2.210       .  S
N663        C668   1.355       .  A
N664        N665   1.323       .  A
N664       Mn678   2.210       .  S
N665        C667   1.354       .  A
Mn666       N791   2.200       .  S
Mn666     Cl1279   2.547       .  S
N669        N670   1.321       .  A
N669        N675   1.315       .  A
N669       Mn827   2.202       .  S
N670        C680   1.354       .  A
N671        N672   1.318       .  A
N671       N1273   1.316       .  A
N671       Mn678   2.198       .  S
N672        C831   1.352       .  A
N673        N674   1.322       .  A
N673       Mn677   2.207       .  S
N675        N676   1.320       .  A
N676        C680   1.353       .  A
Mn677      Cl679   2.547       .  S
Mn678      N1125   2.197       .  S
Mn678     Cl1279   2.542       .  S
C681        C727   1.475       .  S
C681       N1124   1.354       .  A
N682        N683   1.318       .  A
N682        N688   1.316       .  A
N682       Mn711   2.195       .  S
N683        C690   1.350       .  A
N684        N686   1.316       .  A
N684        N685   1.317       .  A
N684       Mn700   2.194       .  S
N685        C691   1.349       .  A
N686        N687   1.323       .  A
N686       Mn711   2.210       .  S
N687        C691   1.354       .  A
N688        N689   1.323       .  A
N688       Mn700   2.209       .  S
N689        C690   1.354       .  A
N692        N698   1.315       .  A
N692        N693   1.321       .  A
N693        C701   1.354       .  A
N694        N695   1.319       .  A
N694       Mn700   2.201       .  S
N696       N1294   1.316       .  A
N696        N697   1.321       .  A
N696       Mn722   2.206       .  S
N697       C1152   1.355       .  A
N698        N699   1.320       .  A
N698      Mn1150   2.198       .  S
N699        C701   1.353       .  A
Mn700      Cl724   2.542       .  S
C702        C742   1.484       .  S
C702        N845   1.353       .  A
N703        N704   1.322       .  A
N703       Mn711   2.206       .  S
N705        N707   1.315       .  A
N705        N706   1.320       .  A
N706        C713   1.353       .  A
N707        N708   1.321       .  A
N707       Mn861   2.202       .  S
N708        C713   1.354       .  A
N709       N1303   1.316       .  A
N709        N710   1.318       .  A
N709       Mn723   2.199       .  S
N710        C862   1.352       .  A
Mn711      Cl724   2.548       .  S
C712        C730   1.476       .  S
C712       N1154   1.354       .  A
N714        N715   1.323       .  A
N714        N720   1.316       .  A
N714       Mn722   2.210       .  S
N715        C725   1.355       .  A
N716        N717   1.323       .  A
N716        N718   1.316       .  A
N716       Mn723   2.210       .  S
N717        C726   1.354       .  A
N718        N719   1.318       .  A
N718       Mn722   2.195       .  S
N719        C726   1.350       .  A
N720        N721   1.317       .  A
N720       Mn723   2.192       .  S
N721        C725   1.349       .  A
Mn722       N842   2.201       .  S
Mn722     Cl1324   2.548       .  S
Mn723      N1155   2.197       .  S
Mn723     Cl1324   2.541       .  S
C727       C1028   1.402       .  A
C727        C732   1.408       .  A
C728        C729   1.396       .  A
C728        H733   1.084       .  S
C729        O734   1.372       .  S
C730       C1029   1.409       .  A
C730        C731   1.404       .  A
C731        C732   1.403       .  A
C731        H735   1.083       .  S
C732        O736   1.371       .  S
O734        H738   0.992       .  S
O736        H737   0.992       .  S
C739        C890   1.404       .  A
C740        C741   1.399       .  A
C740        H745   1.083       .  S
C741        O746   1.371       .  S
C742        C891   1.412       .  A
C743       C1192   1.405       .  A
C743        C744   1.401       .  A
C743        H747   1.083       .  S
C744       C1189   1.411       .  A
C744        O748   1.371       .  S
O746        H750   0.992       .  S
O748        H749   0.992       .  S
C751        C752   1.402       .  A
C751        C756   1.402       .  A
C751        C807   1.467       .  S
C752        C753   1.402       .  A
C752        H757   1.085       .  S
C753        C754   1.401       .  A
C753        C818   1.467       .  S
C754        C755   1.405       .  A
C754        H758   1.084       .  S
C755        C756   1.405       .  A
C755        C796   1.478       .  S
C756        H759   1.084       .  S
C760        C761   1.402       .  A
C760        C765   1.402       .  A
C760        C840   1.467       .  S
C761        C762   1.402       .  A
C761        H766   1.085       .  S
C762        C763   1.401       .  A
C762        C875   1.467       .  S
C763        C764   1.405       .  A
C763        H767   1.084       .  S
C764        C765   1.405       .  A
C764        C851   1.478       .  S
C765        H768   1.084       .  S
C769        C770   1.402       .  A
C769        C774   1.402       .  A
C769        C817   1.468       .  S
C770        C771   1.405       .  A
C770        H775   1.084       .  S
C771        C772   1.405       .  A
C771        C830   1.478       .  S
C772        C773   1.401       .  A
C772        H776   1.084       .  S
C773        C774   1.402       .  A
C773        C806   1.467       .  S
C774        H777   1.085       .  S
C778        C779   1.402       .  A
C778        C783   1.402       .  A
C778        C876   1.468       .  S
C779        C780   1.405       .  A
C779        H784   1.084       .  S
C780        C781   1.405       .  A
C780        C863   1.478       .  S
C781        C782   1.401       .  A
C781        H785   1.084       .  S
C782        C783   1.402       .  A
C782        C841   1.467       .  S
C783        H786   1.085       .  S
N787        N788   1.321       .  A
N787        N943   1.316   1_565  A
N787       Mn816   2.204   1_554  S
N788       C1245   1.354       .  A
N789        N791   1.315       .  A
N789        N790   1.320       .  A
N789      Mn1255   2.198       .  S
N790        C796   1.353       .  A
N791        N792   1.320       .  A
N792        C796   1.354       .  A
N793        N794   1.320       .  A
N793       Mn805   2.203   1_554  S
C795        C889   1.484       .  S
N797        N803   1.316       .  A
N797        N798   1.323       .  A
N797       Mn827   2.209       .  S
N798        C806   1.354       .  A
N799        N800   1.323       .  A
N799        N801   1.316       .  A
N799       Mn805   2.209       .  S
N800        C807   1.354       .  A
N801        N802   1.318       .  A
N801       Mn827   2.196       .  S
N802        C807   1.350       .  A
N803        N804   1.317       .  A
N803       Mn805   2.194       .  S
N804        C806   1.349       .  A
Mn805      Cl829   2.543       .  S
N808        N809   1.318       .  A
N808        N814   1.316       .  A
N808       Mn816   2.195       .  S
N809        C817   1.350       .  A
N810        N812   1.316       .  A
N810        N811   1.317       .  A
N810       Mn828   2.192       .  S
N811        C818   1.349       .  A
N812        N813   1.323       .  A
N812       Mn816   2.210       .  S
N813        C818   1.355       .  A
N814        N815   1.323       .  A
N814       Mn828   2.210       .  S
N815        C817   1.354       .  A
Mn816      Cl979   2.547   1_565  S
N819        N820   1.321       .  A
N819        N825   1.315       .  A
N820        C830   1.354       .  A
N821        N822   1.318       .  A
N821        N973   1.316   1_565  A
N821       Mn828   2.198       .  S
N823        N824   1.322       .  A
N823       Mn827   2.207       .  S
N825        N826   1.320       .  A
N826        C830   1.353       .  A
Mn827      Cl829   2.547       .  S
Mn828      N1275   2.197       .  S
Mn828      Cl979   2.542   1_565  S
C831        C877   1.475       .  S
C831       N1274   1.354       .  A
N832        N833   1.318       .  A
N832        N838   1.316       .  A
N832       Mn861   2.195       .  S
N833        C840   1.350       .  A
N834        N836   1.316       .  A
N834        N835   1.317       .  A
N834       Mn850   2.194       .  S
N835        C841   1.349       .  A
N836        N837   1.323       .  A
N836       Mn861   2.210       .  S
N837        C841   1.354       .  A
N838        N839   1.323       .  A
N838       Mn850   2.209       .  S
N839        C840   1.354       .  A
N842        N848   1.315       .  A
N842        N843   1.321       .  A
N843        C851   1.354       .  A
N844        N845   1.319       .  A
N844       Mn850   2.201       .  S
N846        N994   1.316   1_565  A
N846        N847   1.321       .  A
N846       Mn872   2.206       .  S
N847       C1302   1.355       .  A
N848        N849   1.320       .  A
N848      Mn1300   2.198       .  S
N849        C851   1.353       .  A
Mn850      Cl874   2.542       .  S
C852        C892   1.484       .  S
N853        N854   1.322       .  A
N853       Mn861   2.206       .  S
N855        N857   1.315       .  A
N855        N856   1.320       .  A
N856        C863   1.353       .  A
N857        N858   1.321       .  A
N858        C863   1.354       .  A
N859       N1003   1.316   1_565  A
N859        N860   1.318       .  A
N859       Mn873   2.199       .  S
Mn861      Cl874   2.548       .  S
C862        C880   1.476       .  S
C862       N1304   1.354       .  A
N864        N865   1.323       .  A
N864        N870   1.316       .  A
N864       Mn872   2.210       .  S
N865        C875   1.355       .  A
N866        N867   1.323       .  A
N866        N868   1.316       .  A
N866       Mn873   2.210       .  S
N867        C876   1.354       .  A
N868        N869   1.318       .  A
N868       Mn872   2.195       .  S
N869        C876   1.350       .  A
N870        N871   1.317       .  A
N870       Mn873   2.192       .  S
N871        C875   1.349       .  A
Mn872     Cl1024   2.548   1_565  S
Mn873      N1305   2.197       .  S
Mn873     Cl1024   2.541   1_565  S
C877       C1178   1.402       .  A
C877        C882   1.408       .  A
C878        C879   1.396       .  A
C878        H883   1.084       .  S
C879        O884   1.372       .  S
C880       C1179   1.409       .  A
C880        C881   1.404       .  A
C881        C882   1.403       .  A
C881        H885   1.083       .  S
C882        O886   1.371       .  S
O884        H888   0.992       .  S
O886        H887   0.992       .  S
C890        C891   1.399       .  A
C890        H895   1.083       .  S
C891        O896   1.371       .  S
C893       C1342   1.405       .  A
C893        C894   1.401       .  A
C893        H897   1.083       .  S
C894       C1339   1.411       .  A
C894        O898   1.371       .  S
O896        H900   0.992       .  S
O898        H899   0.992       .  S
C901        C902   1.402       .  A
C901        C906   1.402       .  A
C901        C957   1.467       .  S
C902        C903   1.402       .  A
C902        H907   1.085       .  S
C903        C904   1.401       .  A
C903        C968   1.467       .  S
C904        C905   1.405       .  A
C904        H908   1.084       .  S
C905        C906   1.405       .  A
C905        C946   1.478       .  S
C906        H909   1.084       .  S
C910        C911   1.402       .  A
C910        C915   1.402       .  A
C910        C990   1.467       .  S
C911        C912   1.402       .  A
C911        H916   1.085       .  S
C912        C913   1.401       .  A
C912       C1025   1.467       .  S
C913        C914   1.405       .  A
C913        H917   1.084       .  S
C914        C915   1.405       .  A
C914       C1001   1.478       .  S
C915        H918   1.084       .  S
C919        C920   1.402       .  A
C919        C924   1.402       .  A
C919        C967   1.468       .  S
C920        C921   1.405       .  A
C920        H925   1.084       .  S
C921        C922   1.405       .  A
C921        C980   1.478       .  S
C922        C923   1.401       .  A
C922        H926   1.084       .  S
C923        C924   1.402       .  A
C923        C956   1.467       .  S
C924        H927   1.085       .  S
C928        C929   1.402       .  A
C928        C933   1.402       .  A
C928       C1026   1.468       .  S
C929        C930   1.405       .  A
C929        H934   1.084       .  S
C930        C931   1.405       .  A
C930       C1013   1.478       .  S
C931        C932   1.401       .  A
C931        H935   1.084       .  S
C932        C933   1.402       .  A
C932        C991   1.467       .  S
C933        H936   1.085       .  S
N937        N938   1.321       .  A
N937       Mn966   2.204   1_554  S
N939        N941   1.315       .  A
N939        N940   1.320       .  A
N940        C946   1.353       .  A
N941        N942   1.320       .  A
N941      Mn1266   2.200   1_545  S
N942        C946   1.354       .  A
N943        N944   1.320       .  A
N943       Mn955   2.203   1_554  S
N944       C1245   1.354   1_545  A
C945       C1039   1.484       .  S
C945       N1094   1.354       .  A
N947        N953   1.316       .  A
N947        N948   1.323       .  A
N947       Mn977   2.209       .  S
N948        C956   1.354       .  A
N949        N950   1.323       .  A
N949        N951   1.316       .  A
N949       Mn955   2.209       .  S
N950        C957   1.354       .  A
N951        N952   1.318       .  A
N951       Mn977   2.196       .  S
N952        C957   1.350       .  A
N953        N954   1.317       .  A
N953       Mn955   2.194       .  S
N954        C956   1.349       .  A
Mn955      Cl979   2.543       .  S
N958        N959   1.318       .  A
N958        N964   1.316       .  A
N958       Mn966   2.195       .  S
N959        C967   1.350       .  A
N960        N962   1.316       .  A
N960        N961   1.317       .  A
N960       Mn978   2.192       .  S
N961        C968   1.349       .  A
N962        N963   1.323       .  A
N962       Mn966   2.210       .  S
N963        C968   1.355       .  A
N964        N965   1.323       .  A
N964       Mn978   2.210       .  S
N965        C967   1.354       .  A
Mn966      N1091   2.200       .  S
N969        N970   1.321       .  A
N969        N975   1.315       .  A
N969      Mn1127   2.202       .  S
N970        C980   1.354       .  A
N971        N972   1.318       .  A
N971       Mn978   2.198       .  S
N972       C1131   1.352       .  A
N973        N974   1.322       .  A
N973       Mn977   2.207       .  S
N975        N976   1.320       .  A
N976        C980   1.353       .  A
Mn977      N1269   2.202   1_545  S
Mn977      Cl979   2.547       .  S
C981       C1027   1.475       .  S
C981       N1272   1.352   1_545  A
N982        N983   1.318       .  A
N982        N988   1.316       .  A
N982      Mn1011   2.195       .  S
N983        C990   1.350       .  A
N984        N986   1.316       .  A
N984        N985   1.317       .  A
N984      Mn1000   2.194       .  S
N985        C991   1.349       .  A
N986        N987   1.323       .  A
N986      Mn1011   2.210       .  S
N987        C991   1.354       .  A
N988        N989   1.323       .  A
N988      Mn1000   2.209       .  S
N989        C990   1.354       .  A
N992        N998   1.315       .  A
N992        N993   1.321       .  A
N992      Mn1322   2.201   1_545  S
N993       C1001   1.354       .  A
N994        N995   1.319       .  A
N994      Mn1000   2.201       .  S
N995       C1302   1.353   1_545  A
N996        N997   1.321       .  A
N996      Mn1022   2.206       .  S
N998        N999   1.320       .  A
N999       C1001   1.353       .  A
Mn1000    Cl1024   2.542       .  S
C1002      C1042   1.484       .  S
C1002      N1145   1.353       .  A
N1003      N1004   1.322       .  A
N1003     Mn1011   2.206       .  S
N1005      N1007   1.315       .  A
N1005      N1006   1.320       .  A
N1006      C1013   1.353       .  A
N1007      N1008   1.321       .  A
N1007     Mn1161   2.202       .  S
N1008      C1013   1.354       .  A
N1009      N1010   1.318       .  A
N1009     Mn1023   2.199       .  S
N1010      C1162   1.352   1_655  A
Mn1011     N1307   2.202   1_545  S
Mn1011    Cl1024   2.548       .  S
C1012      C1030   1.476   1_455  S
C1012      N1310   1.352   1_445  A
N1014      N1015   1.323       .  A
N1014      N1020   1.316       .  A
N1014     Mn1022   2.210       .  S
N1015      C1025   1.355       .  A
N1016      N1017   1.323       .  A
N1016      N1018   1.316       .  A
N1016     Mn1023   2.210       .  S
N1017      C1026   1.354       .  A
N1018      N1019   1.318       .  A
N1018     Mn1022   2.195       .  S
N1019      C1026   1.350       .  A
N1020      N1021   1.317       .  A
N1020     Mn1023   2.192       .  S
N1021      C1025   1.349       .  A
Mn1022     N1142   2.201       .  S
C1027      C1032   1.408   1_655  A
C1028      C1029   1.396       .  A
C1028      H1033   1.084       .  S
C1029      O1034   1.372       .  S
C1030      C1031   1.404   1_655  A
C1031      C1032   1.403       .  A
C1031      H1035   1.083       .  S
C1032      O1036   1.371       .  S
O1034      H1038   0.992       .  S
O1036      H1037   0.992       .  S
C1039      C1190   1.404       .  A
C1040      C1339   1.404   1_545  A
C1040      C1041   1.399       .  A
C1040      H1045   1.083       .  S
C1041      C1342   1.412   1_545  A
C1041      O1046   1.371       .  S
C1042      C1191   1.412       .  A
C1043      C1044   1.401       .  A
C1043      H1047   1.083       .  S
C1044      O1048   1.371       .  S
O1046      H1050   0.992       .  S
O1048      H1049   0.992       .  S
C1051      C1052   1.402       .  A
C1051      C1056   1.402       .  A
C1051      C1107   1.467       .  S
C1052      C1053   1.402       .  A
C1052      H1057   1.085       .  S
C1053      C1054   1.401       .  A
C1053      C1118   1.467       .  S
C1054      C1055   1.405       .  A
C1054      H1058   1.084       .  S
C1055      C1056   1.405       .  A
C1055      C1096   1.478       .  S
C1056      H1059   1.084       .  S
C1060      C1061   1.402       .  A
C1060      C1065   1.402       .  A
C1060      C1140   1.467       .  S
C1061      C1062   1.402       .  A
C1061      H1066   1.085       .  S
C1062      C1063   1.401       .  A
C1062      C1175   1.467       .  S
C1063      C1064   1.405       .  A
C1063      H1067   1.084       .  S
C1064      C1065   1.405       .  A
C1064      C1151   1.478       .  S
C1065      H1068   1.084       .  S
C1069      C1070   1.402       .  A
C1069      C1074   1.402       .  A
C1069      C1117   1.468       .  S
C1070      C1071   1.405       .  A
C1070      H1075   1.084       .  S
C1071      C1072   1.405       .  A
C1071      C1130   1.478       .  S
C1072      C1073   1.401       .  A
C1072      H1076   1.084       .  S
C1073      C1074   1.402       .  A
C1073      C1106   1.467       .  S
C1074      H1077   1.085       .  S
C1078      C1079   1.402       .  A
C1078      C1083   1.402       .  A
C1078      C1176   1.468       .  S
C1079      C1080   1.405       .  A
C1079      H1084   1.084       .  S
C1080      C1081   1.405       .  A
C1080      C1163   1.478       .  S
C1081      C1082   1.401       .  A
C1081      H1085   1.084       .  S
C1082      C1083   1.402       .  A
C1082      C1141   1.467       .  S
C1083      H1086   1.085       .  S
N1087      N1088   1.321       .  A
N1087     Mn1116   2.204   1_554  S
N1089      N1091   1.315       .  A
N1089      N1090   1.320       .  A
N1090      C1096   1.353       .  A
N1091      N1092   1.320       .  A
N1092      C1096   1.354       .  A
N1093      N1094   1.320       .  A
N1093     Mn1105   2.203   1_554  S
C1095      C1189   1.484       .  S
C1095      N1244   1.354       .  A
N1097      N1103   1.316       .  A
N1097      N1098   1.323       .  A
N1097     Mn1127   2.209       .  S
N1098      C1106   1.354       .  A
N1099      N1100   1.323       .  A
N1099      N1101   1.316       .  A
N1099     Mn1105   2.209       .  S
N1100      C1107   1.354       .  A
N1101      N1102   1.318       .  A
N1101     Mn1127   2.196       .  S
N1102      C1107   1.350       .  A
N1103      N1104   1.317       .  A
N1103     Mn1105   2.194       .  S
N1104      C1106   1.349       .  A
Mn1105    Cl1129   2.543       .  S
N1108      N1109   1.318       .  A
N1108      N1114   1.316       .  A
N1108     Mn1116   2.195       .  S
N1109      C1117   1.350       .  A
N1110      N1112   1.316       .  A
N1110      N1111   1.317       .  A
N1110     Mn1128   2.192       .  S
N1111      C1118   1.349       .  A
N1112      N1113   1.323       .  A
N1112     Mn1116   2.210       .  S
N1113      C1118   1.355       .  A
N1114      N1115   1.323       .  A
N1114     Mn1128   2.210       .  S
N1115      C1117   1.354       .  A
Mn1116     N1241   2.200       .  S
N1119      N1120   1.321       .  A
N1119      N1125   1.315       .  A
N1119     Mn1277   2.202       .  S
N1120      C1130   1.354       .  A
N1121      N1122   1.318       .  A
N1121     Mn1128   2.198       .  S
N1122      C1281   1.352       .  A
N1123      N1124   1.322       .  A
N1123     Mn1127   2.207       .  S
N1125      N1126   1.320       .  A
N1126      C1130   1.353       .  A
Mn1127    Cl1129   2.547       .  S
C1131      C1177   1.475       .  S
N1132      N1133   1.318       .  A
N1132      N1138   1.316       .  A
N1132     Mn1161   2.195       .  S
N1133      C1140   1.350       .  A
N1134      N1136   1.316       .  A
N1134      N1135   1.317       .  A
N1134     Mn1150   2.194       .  S
N1135      C1141   1.349       .  A
N1136      N1137   1.323       .  A
N1136     Mn1161   2.210       .  S
N1137      C1141   1.354       .  A
N1138      N1139   1.323       .  A
N1138     Mn1150   2.209       .  S
N1139      C1140   1.354       .  A
N1142      N1148   1.315       .  A
N1142      N1143   1.321       .  A
N1143      C1151   1.354       .  A
N1144      N1145   1.319       .  A
N1144     Mn1150   2.201       .  S
N1146      N1147   1.321       .  A
N1146     Mn1172   2.206       .  S
N1148      N1149   1.320       .  A
N1149      C1151   1.353       .  A
Mn1150    Cl1174   2.542       .  S
C1152      C1192   1.484       .  S
C1152      N1295   1.353       .  A
N1153      N1154   1.322       .  A
N1153     Mn1161   2.206       .  S
N1155      N1157   1.315       .  A
N1155      N1156   1.320       .  A
N1156      C1163   1.353       .  A
N1157      N1158   1.321       .  A
N1157     Mn1311   2.202       .  S
N1158      C1163   1.354       .  A
N1159      N1160   1.318       .  A
N1159     Mn1173   2.199       .  S
N1160      C1312   1.352   1_655  A
Mn1161    Cl1174   2.548       .  S
C1162      C1180   1.476   1_455  S
N1164      N1165   1.323       .  A
N1164      N1170   1.316       .  A
N1164     Mn1172   2.210       .  S
N1165      C1175   1.355       .  A
N1166      N1167   1.323       .  A
N1166      N1168   1.316       .  A
N1166     Mn1173   2.210       .  S
N1167      C1176   1.354       .  A
N1168      N1169   1.318       .  A
N1168     Mn1172   2.195       .  S
N1169      C1176   1.350       .  A
N1170      N1171   1.317       .  A
N1170     Mn1173   2.192       .  S
N1171      C1175   1.349       .  A
Mn1172     N1292   2.201       .  S
C1177      C1182   1.408   1_655  A
C1178      C1179   1.396       .  A
C1178      H1183   1.084       .  S
C1179      O1184   1.372       .  S
C1180      C1181   1.404   1_655  A
C1181      C1182   1.403       .  A
C1181      H1185   1.083       .  S
C1182      O1186   1.371       .  S
O1184      H1188   0.992       .  S
O1186      H1187   0.992       .  S
C1189      C1340   1.404       .  A
C1190      C1191   1.399       .  A
C1190      H1195   1.083       .  S
C1191      O1196   1.371       .  S
C1192      C1341   1.412       .  A
C1193      C1194   1.401       .  A
C1193      H1197   1.083       .  S
C1194      O1198   1.371       .  S
O1196      H1200   0.992       .  S
O1198      H1199   0.992       .  S
C1201      C1202   1.402       .  A
C1201      C1206   1.402       .  A
C1201      C1257   1.467       .  S
C1202      C1203   1.402       .  A
C1202      H1207   1.085       .  S
C1203      C1204   1.401       .  A
C1203      C1268   1.467       .  S
C1204      C1205   1.405       .  A
C1204      H1208   1.084       .  S
C1205      C1206   1.405       .  A
C1205      C1246   1.478       .  S
C1206      H1209   1.084       .  S
C1210      C1211   1.402       .  A
C1210      C1215   1.402       .  A
C1210      C1290   1.467       .  S
C1211      C1212   1.402       .  A
C1211      H1216   1.085       .  S
C1212      C1213   1.401       .  A
C1212      C1325   1.467       .  S
C1213      C1214   1.405       .  A
C1213      H1217   1.084       .  S
C1214      C1215   1.405       .  A
C1214      C1301   1.478       .  S
C1215      H1218   1.084       .  S
C1219      C1220   1.402       .  A
C1219      C1224   1.402       .  A
C1219      C1267   1.468       .  S
C1220      C1221   1.405       .  A
C1220      H1225   1.084       .  S
C1221      C1222   1.405       .  A
C1221      C1280   1.478       .  S
C1222      C1223   1.401       .  A
C1222      H1226   1.084       .  S
C1223      C1224   1.402       .  A
C1223      C1256   1.467       .  S
C1224      H1227   1.085       .  S
C1228      C1229   1.402       .  A
C1228      C1233   1.402       .  A
C1228      C1326   1.468       .  S
C1229      C1230   1.405       .  A
C1229      H1234   1.084       .  S
C1230      C1231   1.405       .  A
C1230      C1313   1.478       .  S
C1231      C1232   1.401       .  A
C1231      H1235   1.084       .  S
C1232      C1233   1.402       .  A
C1232      C1291   1.467       .  S
C1233      H1236   1.085       .  S
N1237      N1238   1.321       .  A
N1237     Mn1266   2.204   1_554  S
N1239      N1241   1.315       .  A
N1239      N1240   1.320       .  A
N1240      C1246   1.353       .  A
N1241      N1242   1.320       .  A
N1242      C1246   1.354       .  A
N1243      N1244   1.320       .  A
N1243     Mn1255   2.203   1_554  S
C1245      C1339   1.484       .  S
N1247      N1253   1.316       .  A
N1247      N1248   1.323       .  A
N1247     Mn1277   2.209       .  S
N1248      C1256   1.354       .  A
N1249      N1250   1.323       .  A
N1249      N1251   1.316       .  A
N1249     Mn1255   2.209       .  S
N1250      C1257   1.354       .  A
N1251      N1252   1.318       .  A
N1251     Mn1277   2.196       .  S
N1252      C1257   1.350       .  A
N1253      N1254   1.317       .  A
N1253     Mn1255   2.194       .  S
N1254      C1256   1.349       .  A
Mn1255    Cl1279   2.543       .  S
N1258      N1259   1.318       .  A
N1258      N1264   1.316       .  A
N1258     Mn1266   2.195       .  S
N1259      C1267   1.350       .  A
N1260      N1262   1.316       .  A
N1260      N1261   1.317       .  A
N1260     Mn1278   2.192       .  S
N1261      C1268   1.349       .  A
N1262      N1263   1.323       .  A
N1262     Mn1266   2.210       .  S
N1263      C1268   1.355       .  A
N1264      N1265   1.323       .  A
N1264     Mn1278   2.210       .  S
N1265      C1267   1.354       .  A
N1269      N1270   1.321       .  A
N1269      N1275   1.315       .  A
N1270      C1280   1.354       .  A
N1271      N1272   1.318       .  A
N1271     Mn1278   2.198       .  S
N1273      N1274   1.322       .  A
N1273     Mn1277   2.207       .  S
N1275      N1276   1.320       .  A
N1276      C1280   1.353       .  A
Mn1277    Cl1279   2.547       .  S
C1281      C1327   1.475       .  S
N1282      N1283   1.318       .  A
N1282      N1288   1.316       .  A
N1282     Mn1311   2.195       .  S
N1283      C1290   1.350       .  A
N1284      N1286   1.316       .  A
N1284      N1285   1.317       .  A
N1284     Mn1300   2.194       .  S
N1285      C1291   1.349       .  A
N1286      N1287   1.323       .  A
N1286     Mn1311   2.210       .  S
N1287      C1291   1.354       .  A
N1288      N1289   1.323       .  A
N1288     Mn1300   2.209       .  S
N1289      C1290   1.354       .  A
N1292      N1298   1.315       .  A
N1292      N1293   1.321       .  A
N1293      C1301   1.354       .  A
N1294      N1295   1.319       .  A
N1294     Mn1300   2.201       .  S
N1296      N1297   1.321       .  A
N1296     Mn1322   2.206       .  S
N1298      N1299   1.320       .  A
N1299      C1301   1.353       .  A
Mn1300    Cl1324   2.542       .  S
C1302      C1342   1.484       .  S
N1303      N1304   1.322       .  A
N1303     Mn1311   2.206       .  S
N1305      N1307   1.315       .  A
N1305      N1306   1.320       .  A
N1306      C1313   1.353       .  A
N1307      N1308   1.321       .  A
N1308      C1313   1.354       .  A
N1309      N1310   1.318       .  A
N1309     Mn1323   2.199       .  S
Mn1311    Cl1324   2.548       .  S
C1312      C1330   1.476   1_455  S
N1314      N1315   1.323       .  A
N1314      N1320   1.316       .  A
N1314     Mn1322   2.210       .  S
N1315      C1325   1.355       .  A
N1316      N1317   1.323       .  A
N1316      N1318   1.316       .  A
N1316     Mn1323   2.210       .  S
N1317      C1326   1.354       .  A
N1318      N1319   1.318       .  A
N1318     Mn1322   2.195       .  S
N1319      C1326   1.350       .  A
N1320      N1321   1.317       .  A
N1320     Mn1323   2.192       .  S
N1321      C1325   1.349       .  A
C1327      C1332   1.408   1_655  A
C1328      C1329   1.396       .  A
C1328      H1333   1.084       .  S
C1329      O1334   1.372       .  S
C1330      C1331   1.404   1_655  A
C1331      C1332   1.403       .  A
C1331      H1335   1.083       .  S
C1332      O1336   1.371       .  S
O1334      H1338   0.992       .  S
O1336      H1337   0.992       .  S
C1340      C1341   1.399       .  A
C1340      H1345   1.083       .  S
C1341      O1346   1.371       .  S
C1343      C1344   1.401       .  A
C1343      H1347   1.083       .  S
C1344      O1348   1.371       .  S
O1346      H1350   0.992       .  S
O1348      H1349   0.992       .  S
