geometry optimzed in LAMMPS
_audit_creation_date              2020-12-01 
_audit_creation_method            'lammps2cif' 
_symmetry_space_group_name_H-M    'P1' 
_symmetry_Int_Tables_number       1 
_symmetry_cell_setting            triclinic 
loop_ 
_symmetry_equiv_pos_as_xyz 
  x,y,z 
_cell_length_a                    41.84054135 
_cell_length_b                    41.43291483433044 
_cell_length_c                    32.06323505775419 
_cell_angle_alpha                 97.09229879537912 
_cell_angle_beta                  82.15716659084049 
_cell_angle_gamma                 122.50021690279192 
loop_ 
_atom_site_label 
_atom_site_type_symbol 
_atom_site_fract_x 
_atom_site_fract_y 
_atom_site_fract_z 
_atom_site_charge 
C1          C  0.34845943  0.15312360  0.97912932     0.79000
N2          N  0.36728988  0.19195834  0.98170280    -0.79300
C3          C  0.34859568  0.21031486  0.98103124     0.81400
N4          N  0.31062120  0.18947884  0.97687185    -0.79300
C5          C  0.29145940  0.15057693  0.97362101     0.81500
N6          N  0.31055626  0.13257992  0.97438048    -0.81000
C7          C  0.34799752  0.13537375  0.46926064     0.79000
N8          N  0.31014446  0.11553138  0.46526373    -0.79300
C9          C  0.29182790  0.13392604  0.46315536     0.81400
N10         N  0.31159051  0.17274647  0.46437585    -0.79300
C11         C  0.34967706  0.19309077  0.46779131     0.81500
N12         N  0.36756165  0.17425817  0.47045964    -0.81000
C13         C  0.15086734  0.35765517  0.79693949     0.79000
N14         N  0.18954752  0.37863753  0.79402033    -0.79300
C15         C  0.20949695  0.36143531  0.79423902     0.81400
N16         N  0.19042716  0.32313673  0.79889769    -0.79300
C17         C  0.15186609  0.30209177  0.80256386     0.81500
N18         N  0.13240416  0.31951517  0.80150067    -0.81000
C19         C  0.14784502  0.34126557  0.28951351     0.79000
N20         N  0.12897926  0.30242233  0.28735720    -0.79300
C21         C  0.14777454  0.28398984  0.28732738     0.81400
N22         N  0.18602391  0.30506791  0.29030142    -0.79300
C23         C  0.20533939  0.34403253  0.29260251     0.81500
N24         N  0.18598483  0.36189730  0.29296778    -0.81000
N25         N  0.47024101  0.49372404  0.98735921    -0.07400
N26         N  0.46128057  0.47692264  0.02305160    -0.59500
N27         N  0.47416777  0.06276437  0.94006393    -0.07000
N28         N  0.46984924  0.09232033  0.94715151    -0.61600
N29         N  0.44089093  0.03051522  0.93920757    -0.06600
N30         N  0.41326104  0.03747683  0.94583093    -0.59500
N31         N  0.00373605  0.02572534  0.98779366    -0.06300
N32         N  0.01829228  0.03136347  0.02383574    -0.62000
C33         C  0.49160522  0.50053749  0.04542090     0.94800
C34         C  0.43171665  0.07619773  0.95041110     0.94600
N35         N  0.06099446  0.08701198  0.84418642    -0.07500
N36         N  0.07812467  0.11506789  0.81819027    -0.60100
N37         N  0.08015419  0.06272907  0.92862165    -0.05700
N38         N  0.10679035  0.07757525  0.95528870    -0.61300
N39         N  0.09165849  0.05175846  0.89259230    -0.07600
N40         N  0.12617898  0.05873438  0.89415730    -0.60300
N41         N  0.04959691  0.09805312  0.88028343    -0.05300
N42         N  0.05848820  0.13364424  0.87952874    -0.61400
Mn43       Mn  0.02729887  0.06313937  0.93503843     1.18400
C44         C  0.07622376  0.14392078  0.84065696     0.96900
C45         C  0.13538297  0.07478016  0.93351408     0.97600
N46         N  0.40489663  0.45672374  0.87700084    -0.07600
N47         N  0.37216942  0.45325179  0.87331349    -0.63900
N48         N  0.44600211  0.40896243  0.89213618    -0.06400
N49         N  0.44002451  0.37470336  0.89520850    -0.64600
N50         N  0.43361532  0.42013838  0.92732762    -0.07100
N51         N  0.41902433  0.39369168  0.95516422    -0.64200
N52         N  0.41632553  0.44455991  0.84177223    -0.06000
N53         N  0.39151469  0.43253679  0.81339870    -0.64900
Mn54       Mn  0.43630088  0.47484465  0.93341002     1.10700
C55         C  0.36432587  0.43859513  0.83332734     0.98100
C56         C  0.42364924  0.36566455  0.93481434     0.98200
N57         N  0.05519590  0.47780691  0.83232314    -0.07100
N58         N  0.08393162  0.47272411  0.82747616    -0.62500
N59         N  0.49176921  0.47894972  0.78272097    -0.06400
N60         N  0.47870458  0.46946762  0.74519908    -0.59200
N61         N  0.02454330  0.01182965  0.78253847    -0.07700
N62         N  0.03451209  0.02525584  0.74460118    -0.62000
N63         N  0.02266870  0.44469352  0.83243799    -0.06700
N64         N  0.02884488  0.41624619  0.82751398    -0.59200
Mn65       Mn  0.05879580  0.03255858  0.83709167     1.20200
Mn66       Mn  0.46867639  0.44317593  0.83663497     1.10100
Cl67       Cl  0.49775821  0.50346906  0.88548891    -0.87200
C68         C  0.06734539  0.43434103  0.82489658     0.95100
C69         C  0.50538985  0.49873640  0.72177415     0.94900
N70         N  0.47687345  0.48217217  0.48404356    -0.07400
N71         N  0.46929253  0.46792923  0.52122116    -0.59500
N72         N  0.47674898  0.04923344  0.43664406    -0.07000
N73         N  0.47170252  0.07831668  0.44342395    -0.61600
N74         N  0.44387221  0.01655660  0.43804446    -0.06600
N75         N  0.41581335  0.02263055  0.44585076    -0.59500
N76         N  0.00983636  0.01474440  0.48244359    -0.06300
N77         N  0.02540137  0.02325844  0.51838560    -0.62000
C78         C  0.50005878  0.49365295  0.54218784     0.94800
C79         C  0.43348399  0.06123225  0.44921840     0.94600
N80         N  0.05976508  0.07234267  0.33659347    -0.07500
N81         N  0.07293072  0.09825074  0.30840535    -0.60100
N82         N  0.08271281  0.05016288  0.41950632    -0.05700
N83         N  0.10955267  0.06400502  0.44561872    -0.61300
N84         N  0.09278162  0.03790260  0.38349155    -0.07600
N85         N  0.12668015  0.04313636  0.38436265    -0.60300
N86         N  0.04913671  0.08419147  0.37261256    -0.05300
N87         N  0.05462474  0.11834011  0.36964841    -0.61400
Mn88       Mn  0.03009815  0.05060005  0.42859366     1.18400
C89         C  0.06903213  0.12654106  0.32926227     0.96900
C90         C  0.13678379  0.05923413  0.42351032     0.97600
N91         N  0.40426031  0.44180537  0.37891403    -0.07600
N92         N  0.37015981  0.43636137  0.37877368    -0.63900
N93         N  0.44664179  0.39477914  0.38889003    -0.06400
N94         N  0.43856645  0.35954740  0.39091538    -0.64600
N95         N  0.43651273  0.40675229  0.42518352    -0.07100
N96         N  0.42115528  0.37989725  0.45256494    -0.64200
N97         N  0.41414470  0.42989954  0.34238862    -0.06000
N98         N  0.38684298  0.41614883  0.31675079    -0.64900
Mn99       Mn  0.43958609  0.46144912  0.43243572     1.10700
C100        C  0.35960991  0.42067702  0.33967883     0.98100
C101        C  0.42275616  0.35067494  0.43079548     0.98200
N102        N  0.05378784  0.46264718  0.32490706    -0.07100
N103        N  0.08216962  0.45693741  0.31956344    -0.62500
N104        N  0.48842458  0.46501623  0.27891728    -0.06400
N105        N  0.47369372  0.45792573  0.24256025    -0.59200
N106        N  0.02156734  0.99734235  0.27846623    -0.07700
N107        N  0.03013721  0.01288611  0.24210075    -0.62000
N108        N  0.02093697  0.42978982  0.32544524    -0.06700
N109        N  0.02645883  0.40090632  0.32029661    -0.59200
Mn110      Mn  0.05782078  0.01792245  0.33012794     1.20200
Mn111      Mn  0.46700021  0.42881247  0.33298198     1.10100
Cl112      Cl  0.49860141  0.48964614  0.38103694    -0.87200
C113        C  0.06486527  0.41842875  0.31709816     0.95100
C114        C  0.50001986  0.48835799  0.22009312     0.94900
C115        C  0.48296080  0.46270294  0.65370351    -0.10400
C116        C  0.50497512  0.49820531  0.67575780     0.05800
C117        C  0.02629493  0.03167331  0.65314722    -0.04200
C118        C  0.02519446  0.02901281  0.60951124    -0.08600
C119        C  0.50257198  0.49367825  0.58761446     0.04900
C120        C  0.48149336  0.46011154  0.61011381    -0.03600
Br121      Br  0.45106844  0.40975551  0.58364755    -0.03300
H122        H  0.46685437  0.43654876  0.67040807     0.08800
H123        H  0.04125423  0.05518393  0.59283878     0.06800
Br124      Br  0.05508910  0.08220902  0.67971699    -0.03800
C125        C  0.01999485  0.52832131  0.11291617    -0.10400
C126        C  0.49385130  0.49598384  0.08953797     0.05800
C127        C  0.47016724  0.46096153  0.10918372    -0.04200
C128        C  0.47230401  0.45951741  0.15189358    -0.08600
C129        C  0.49802502  0.49214616  0.17559319     0.04900
C130        C  0.02233376  0.52688218  0.15544029    -0.03600
Br131      Br  0.05818529  0.57440039  0.18370416    -0.03300
H132        H  0.03826794  0.55552646  0.09844090     0.08800
H133        H  0.45411778  0.43234261  0.16643990     0.06800
Br134      Br  0.43569760  0.41352427  0.07981912    -0.03800
C135        C  0.08881837  0.22472419  0.31230177    -0.10400
C136        C  0.12569449  0.24186759  0.29157327     0.05800
C137        C  0.14113503  0.21874654  0.27877482    -0.04200
C138        C  0.12099911  0.18052430  0.28926749    -0.08600
C139        C  0.08572261  0.16460923  0.31293469     0.04900
C140        C  0.06898140  0.18660274  0.32327075    -0.03600
Br141      Br  0.01909641  0.16600059  0.35197201    -0.03300
H142        H  0.07586563  0.24145646  0.32185553     0.08800
H143        H  0.13389341  0.16363976  0.28049346     0.06800
Br144      Br  0.18917224  0.23666926  0.24680680    -0.03800
C145        C  0.25682198  0.39306767  0.33636369    -0.10400
C146        C  0.24583266  0.36662257  0.30136564     0.05800
C147        C  0.27337698  0.36129980  0.27684927    -0.04200
C148        C  0.31040006  0.38010746  0.28922186    -0.08600
C149        C  0.32106628  0.40492465  0.32574589     0.04900
C150        C  0.29396640  0.41233359  0.34863259    -0.03600
Br151      Br  0.30510695  0.44855677  0.39640037    -0.03300
H152        H  0.23609030  0.39809975  0.35496108     0.08800
H153        H  0.33077025  0.37476692  0.27031737     0.06800
Br154      Br  0.26278968  0.33082402  0.22470241    -0.03800
C155        C  0.14027098  0.39484914  0.32038117    -0.10400
C156        C  0.12650870  0.36094466  0.29440925     0.05800
C157        C  0.09195230  0.34597607  0.27599739    -0.04200
C158        C  0.07186025  0.36465542  0.28445619    -0.08600
C159        C  0.08575782  0.39845720  0.31053790     0.04900
C160        C  0.12032571  0.41349896  0.32867330    -0.03600
Br161      Br  0.14064775  0.45778305  0.36761768    -0.03300
H162        H  0.16630174  0.40648262  0.33549908     0.08800
H163        H  0.04565015  0.35317537  0.26975055     0.06800
Br164      Br  0.07171793  0.30170454  0.23711890    -0.03800
C165        C  0.14523123  0.23860242  0.79051436    -0.10400
C166        C  0.13134438  0.26120065  0.81078964     0.05800
C167        C  0.09901532  0.24462109  0.83995077    -0.04200
C168        C  0.08087095  0.20599271  0.84744718    -0.08600
C169        C  0.09468394  0.18330443  0.82738750     0.04900
C170        C  0.12745181  0.19998849  0.79873074    -0.03600
Br171      Br  0.15169601  0.17333687  0.77268562    -0.03300
H172        H  0.17046053  0.25122587  0.76867100     0.10400
H173        H  0.05635377  0.19389801  0.87027574     0.06800
Br174      Br  0.08039571  0.27352874  0.87434186    -0.03800
C175        C  0.26669443  0.41957096  0.82136948    -0.10400
C176        C  0.25110160  0.38484545  0.79671420     0.05800
C177        C  0.27498863  0.37152067  0.77889440    -0.04200
C178        C  0.31276197  0.39115620  0.78885039    -0.08600
C179        C  0.32728135  0.42383735  0.81681279     0.04900
C180        C  0.30437873  0.43905238  0.83160547    -0.03600
Br181      Br  0.32259411  0.48604496  0.86601235    -0.03300
H182        H  0.24894888  0.43065031  0.83468841     0.08800
H183        H  0.33020586  0.37952787  0.77638034     0.06800
Br184      Br  0.25772540  0.32668536  0.74101145    -0.03800
C185        C  0.14697731  0.41491677  0.81831485    -0.10400
C186        C  0.12923597  0.37695064  0.80137779     0.05800
C187        C  0.09083573  0.35802503  0.79205740    -0.04200
C188        C  0.07114772  0.37707088  0.80052155    -0.08600
C189        C  0.08894461  0.41498196  0.81778445     0.04900
C190        C  0.12743269  0.43392381  0.82666849    -0.03600
Br191      Br  0.15531006  0.48489665  0.85248179    -0.03300
H192        H  0.17610446  0.42978372  0.82640505     0.08800
H193        H  0.04190009  0.36228770  0.79289595     0.06800
Br194      Br  0.06376319  0.30707857  0.76589744    -0.03800
C195        C  0.40807520  0.13738328  0.47264207    -0.10400
C196        C  0.36872922  0.11529434  0.46783404     0.05800
C197        C  0.35116559  0.07513212  0.45958187    -0.04200
C198        C  0.37321541  0.05887670  0.45423145    -0.08600
C199        C  0.41258614  0.08112996  0.45728104     0.04900
C200        C  0.43000863  0.12080865  0.46771553    -0.03600
Br201      Br  0.48294469  0.15423724  0.47701369    -0.03300
H202        H  0.42223107  0.16799791  0.48000117     0.08800
H203        H  0.35916578  0.02825090  0.44701377     0.06800
Br204      Br  0.29772033  0.03928966  0.45433900    -0.03800
C205        C  0.35564566  0.25618399  0.48170435    -0.10400
C206        C  0.37169666  0.23487281  0.46366113     0.05800
C207        C  0.40654539  0.25330125  0.43844980    -0.04200
C208        C  0.42334538  0.29161628  0.43006473    -0.08600
C209        C  0.40644616  0.31242459  0.44642340     0.04900
C210        C  0.37276531  0.29475418  0.47362238    -0.03600
Br211      Br  0.34655616  0.31997676  0.49764287    -0.03300
H212        H  0.32898189  0.24241450  0.50116195     0.08800
H213        H  0.44926418  0.30491673  0.40931531     0.06800
Br214      Br  0.43108889  0.22750996  0.41039712    -0.03800
C215        C  0.20170931  0.07088542  0.40873906    -0.10400
C216        C  0.17513512  0.07480547  0.43726419     0.05800
C217        C  0.18706572  0.09598505  0.47626092    -0.04200
C218        C  0.22525915  0.11469450  0.48433217    -0.08600
C219        C  0.25167929  0.11187408  0.45493108     0.04900
C220        C  0.23963456  0.08908507  0.41729352    -0.03600
Br221      Br  0.27438555  0.08449544  0.37490295    -0.03300
H222        H  0.19338498  0.05463547  0.37884980     0.08800
H223        H  0.23447683  0.13173551  0.51365658     0.06800
Br224      Br  0.15378498  0.10134155  0.52019112    -0.03800
C225        C  0.37444202  0.07802946  0.97842441    -0.10400
C226        C  0.41208585  0.09752321  0.96013860     0.05800
C227        C  0.42945399  0.13638875  0.95147963    -0.04200
C228        C  0.40840761  0.15398291  0.95898476    -0.08600
C229        C  0.37023305  0.13398425  0.97570062     0.04900
C230        C  0.35371339  0.09594321  0.98684040    -0.03600
Br231      Br  0.30403041  0.06747312  0.01592479    -0.03300
H232        H  0.36103004  0.04863491  0.98670367     0.08800
H233        H  0.42186398  0.18333265  0.95049994     0.06800
Br234      Br  0.48090722  0.16700840  0.92743373    -0.03800
C235        C  0.40341776  0.26657920  0.94740066    -0.10400
C236        C  0.37064331  0.25185317  0.97553782     0.05800
C237        C  0.35828538  0.27631068  0.99424318    -0.04200
C238        C  0.37725620  0.31412569  0.98228592    -0.08600
C239        C  0.40830596  0.32791190  0.95151373     0.04900
C240        C  0.42223162  0.30410412  0.93521869    -0.03600
Br241      Br  0.46669460  0.32048448  0.89629425    -0.03300
H242        H  0.41358408  0.24823986  0.93319201     0.08800
H243        H  0.36669662  0.33226946  0.99590429     0.06800
Br244      Br  0.31627205  0.25971519  0.03655881    -0.03800
C245        C  0.19917288  0.08303743  0.92302452    -0.10400
C246        C  0.17402043  0.09180771  0.94771229     0.05800
C247        C  0.18775256  0.11882067  0.98259604    -0.04200
C248        C  0.22588677  0.13687322  0.99098929    -0.08600
C249        C  0.25088011  0.12845065  0.96570071     0.04900
C250        C  0.23715975  0.10102063  0.93155376    -0.03600
Br251      Br  0.26968402  0.08988255  0.89261404    -0.03300
H252        H  0.18968389  0.06300499  0.89583060     0.08800
H253        H  0.23629791  0.15814865  0.01712150     0.06800
Br254      Br  0.15756166  0.13471834  0.01890755    -0.03800
C255        C  0.34833034  0.65299754  0.97901726     0.79000
N256        N  0.36715048  0.69183017  0.98150980    -0.79300
C257        C  0.34843351  0.71016505  0.98085693     0.81400
N258        N  0.31044435  0.68930826  0.97679478    -0.79300
C259        C  0.29129295  0.65040592  0.97362892     0.81500
N260        N  0.31041120  0.63242900  0.97436962    -0.81000
C261        C  0.34789102  0.63531515  0.46955242     0.79000
N262        N  0.31003928  0.61545481  0.46554388    -0.79300
C263        C  0.29170840  0.63382628  0.46338276     0.81400
N264        N  0.31145811  0.67264727  0.46455943    -0.79300
C265        C  0.34954602  0.69301319  0.46797818     0.81500
N266        N  0.36744488  0.67420057  0.47069746    -0.81000
C267        C  0.15085043  0.85763597  0.79700050     0.79000
N268        N  0.18952872  0.87861212  0.79407119    -0.79300
C269        C  0.20947574  0.86141014  0.79429287     0.81400
N270        N  0.19040477  0.82310996  0.79894957    -0.79300
C271        C  0.15184340  0.80207138  0.80261548     0.81500
N272        N  0.13238494  0.81949821  0.80156333    -0.81000
C273        C  0.14770788  0.84119271  0.28951408     0.79000
N274        N  0.12887040  0.80234607  0.28732773    -0.79300
C275        C  0.14771250  0.78393702  0.28715369     0.81400
N276        N  0.18597697  0.80504373  0.29001635    -0.79300
C277        C  0.20526330  0.84400611  0.29234536     0.81500
N278        N  0.18586561  0.86184365  0.29285068    -0.81000
N279        N  0.47024922  0.99364001  0.98727275    -0.07400
N280        N  0.46136747  0.97678943  0.02291719    -0.59500
N281        N  0.47418093  0.56280817  0.94006921    -0.07000
N282        N  0.46983785  0.59235183  0.94710460    -0.61600
N283        N  0.44091259  0.53054827  0.93919661    -0.06600
N284        N  0.41326681  0.53748394  0.94575943    -0.59500
N285        N  0.00372121  0.52567258  0.98772176    -0.06300
N286        N  0.01834046  0.53129346  0.02371273    -0.62000
C287        C  0.49174052  0.00038540  0.04522773     0.94800
C288        C  0.43169956  0.57620030  0.95031365     0.94600
N289        N  0.06093509  0.58698715  0.84416313    -0.07500
N290        N  0.07803404  0.61503532  0.81816008    -0.60100
N291        N  0.08007546  0.56267639  0.92857995    -0.05700
N292        N  0.10667692  0.57747028  0.95527983    -0.61300
N293        N  0.09158695  0.55170787  0.89255744    -0.07600
N294        N  0.12608390  0.55863730  0.89415432    -0.60300
N295        N  0.04952335  0.59801712  0.88025685    -0.05300
N296        N  0.05838107  0.63359630  0.87949500    -0.61400
Mn297      Mn  0.02724368  0.56309631  0.93500115     1.18400
C298        C  0.07610662  0.64387601  0.84061849     0.96900
C299        C  0.13525891  0.57464904  0.93352757     0.97600
N300        N  0.40488210  0.95672936  0.87694581    -0.07600
N301        N  0.37216217  0.95327541  0.87326300    -0.63900
N302        N  0.44595041  0.90891099  0.89199534    -0.06400
N303        N  0.43993252  0.87462702  0.89500567    -0.64600
N304        N  0.43356472  0.92006277  0.92720670    -0.07100
N305        N  0.41893523  0.89356960  0.95499551    -0.64200
N306        N  0.41631993  0.94459250  0.84170106    -0.06000
N307        N  0.39152124  0.93260374  0.81332267    -0.64900
Mn308      Mn  0.43627399  0.97479404  0.93335558     1.10700
C309        C  0.36433323  0.93865678  0.83326337     0.98100
C310        C  0.42353319  0.86553971  0.93459354     0.98200
N311        N  0.05523299  0.97782571  0.83240682    -0.07100
N312        N  0.08397326  0.97275127  0.82754874    -0.62500
N313        N  0.49177924  0.97900122  0.78266614    -0.06400
N314        N  0.47871335  0.96956874  0.74515216    -0.59200
N315        N  0.02454514  0.51186699  0.78248966    -0.07700
N316        N  0.03453791  0.52530676  0.74455844    -0.62000
N317        N  0.02270967  0.94470861  0.83255490    -0.06700
N318        N  0.02889193  0.91626773  0.82764170    -0.59200
Mn319      Mn  0.05875935  0.53254618  0.83704774     1.20200
Mn320      Mn  0.46865694  0.94317591  0.83653885     1.10100
Cl321      Cl  0.49773309  0.00343185  0.88542631    -0.87200
C322        C  0.06739239  0.93437047  0.82499508     0.95100
C323        C  0.50543534  0.99881607  0.72171695     0.94900
N324        N  0.47666868  0.98208636  0.48385000    -0.07400
N325        N  0.46897494  0.96790583  0.52108058    -0.59500
N326        N  0.47676657  0.54930161  0.43694111    -0.07000
N327        N  0.47167866  0.57835933  0.44372088    -0.61600
N328        N  0.44390982  0.51660605  0.43838163    -0.06600
N329        N  0.41582371  0.52264105  0.44621413    -0.59500
N330        N  0.00972230  0.51467539  0.48229250    -0.06300
N331        N  0.02521266  0.52320843  0.51828718    -0.62000
C332        C  0.49969629  0.99361994  0.54211638     0.94800
C333        C  0.43345621  0.56124041  0.44956200     0.94600
N334        N  0.05991657  0.57228075  0.33644986    -0.07500
N335        N  0.07312994  0.59819852  0.30825920    -0.60100
N336        N  0.08266552  0.55000764  0.41947160    -0.05700
N337        N  0.10944900  0.56380829  0.44564906    -0.61300
N338        N  0.09277033  0.53774593  0.38348327    -0.07600
N339        N  0.12664150  0.54293638  0.38443937    -0.60300
N340        N  0.04925814  0.58412951  0.37244591    -0.05300
N341        N  0.05476612  0.61828349  0.36946511    -0.61400
Mn342      Mn  0.03009796  0.55051403  0.42842351     1.18400
C343        C  0.06922351  0.62649334  0.32909380     0.96900
C344        C  0.13668708  0.55901129  0.42361061     0.97600
N345        N  0.40420182  0.94174502  0.37859180    -0.07600
N346        N  0.37011602  0.93632615  0.37842322    -0.63900
N347        N  0.44647689  0.89463638  0.38869534    -0.06400
N348        N  0.43837882  0.85939839  0.39075489    -0.64600
N349        N  0.43633416  0.90662900  0.42496729    -0.07100
N350        N  0.42094719  0.87978125  0.45236372    -0.64200
N351        N  0.41408552  0.92981224  0.34208585    -0.06000
N352        N  0.38679064  0.91606480  0.31643264    -0.64900
Mn353      Mn  0.43946941  0.96136806  0.43216160     1.10700
C354        C  0.35956491  0.92062587  0.33933527     0.98100
C355        C  0.42254011  0.85053890  0.43063236     0.98200
N356        N  0.05378527  0.96276476  0.32495254    -0.07100
N357        N  0.08216865  0.95705154  0.31960317    -0.62500
N358        N  0.48845707  0.96492083  0.27872452    -0.06400
N359        N  0.47379230  0.95782126  0.24232509    -0.59200
N360        N  0.02169104  0.49726260  0.27832910    -0.07700
N361        N  0.03030783  0.51280535  0.24195394    -0.62000
N362        N  0.02093683  0.92990622  0.32552182    -0.06700
N363        N  0.02645730  0.90102307  0.32039452    -0.59200
Mn364      Mn  0.05788658  0.51781765  0.33004384     1.20200
Mn365      Mn  0.46693125  0.92868992  0.33277427     1.10100
Cl366      Cl  0.49853568  0.98952549  0.38084149    -0.87200
C367        C  0.06486237  0.91853795  0.31716773     0.95100
C368        C  0.50016755  0.98823531  0.21986667     0.94900
C369        C  0.48195563  0.96293051  0.65389441    -0.10400
C370        C  0.50495750  0.99829628  0.67569281     0.05800
C371        C  0.02693883  0.53161175  0.65286897    -0.04200
C372        C  0.02568745  0.52887746  0.60924790    -0.08600
C373        C  0.50220711  0.99362219  0.58756195     0.04900
C374        C  0.48029019  0.96026276  0.61034380    -0.03600
Br375      Br  0.44828108  0.91001953  0.58443962    -0.03300
H376        H  0.46516566  0.93690920  0.67077561     0.08800
H377        H  0.04229858  0.55494032  0.59242306     0.06800
Br378      Br  0.05701310  0.58210651  0.67905290    -0.03800
C379        C  0.01983248  0.02840095  0.11308145    -0.10400
C380        C  0.49407149  0.99581346  0.08929863     0.05800
C381        C  0.47042979  0.96078205  0.10892799    -0.04200
C382        C  0.47256908  0.95934521  0.15163455    -0.08600
C383        C  0.49824469  0.99199571  0.17534366     0.04900
C384        C  0.02215824  0.02695485  0.15560762    -0.03600
Br385      Br  0.05809409  0.07444922  0.18383667    -0.03300
H386        H  0.03814631  0.05559644  0.09859780     0.08800
H387        H  0.45440055  0.93216768  0.16617931     0.06800
Br388      Br  0.43599272  0.91333854  0.07955044    -0.03800
C389        C  0.08881419  0.72459639  0.31209658    -0.10400
C390        C  0.12569021  0.74180325  0.29136537     0.05800
C391        C  0.14119433  0.71873519  0.27855524    -0.04200
C392        C  0.12112443  0.68051316  0.28905546    -0.08600
C393        C  0.08585294  0.66454564  0.31273771     0.04900
C394        C  0.06904508  0.68647885  0.32306718    -0.03600
Br395      Br  0.01915137  0.66579727  0.35176423    -0.03300
H396        H  0.07580741  0.74127750  0.32165575     0.08800
H397        H  0.13406730  0.66367368  0.28027893     0.06800
Br398      Br  0.18923927  0.73673304  0.24657279    -0.03800
C399        C  0.25674991  0.89297876  0.33612081    -0.10400
C400        C  0.24577144  0.86661607  0.30105494     0.05800
C401        C  0.27333116  0.86136868  0.27645413    -0.04200
C402        C  0.31036706  0.88017547  0.28880427    -0.08600
C403        C  0.32102085  0.90490098  0.32540143     0.04900
C404        C  0.29389406  0.91222854  0.34838044    -0.03600
Br405      Br  0.30496139  0.94827528  0.39631282    -0.03300
H406        H  0.23600197  0.89794255  0.35479312     0.08800
H407        H  0.33075191  0.87489591  0.26983516     0.06800
Br408      Br  0.26272692  0.83097130  0.22425224    -0.03800
C409        C  0.14023669  0.89486483  0.32034104    -0.10400
C410        C  0.12635841  0.86087340  0.29449890     0.05800
C411        C  0.09173311  0.84588166  0.27622664    -0.04200
C412        C  0.07170514  0.86462966  0.28467879    -0.08600
C413        C  0.08573081  0.89853151  0.31060561     0.04900
C414        C  0.12036090  0.91359182  0.32861264    -0.03600
Br415      Br  0.14088780  0.95803075  0.36733225    -0.03300
H416        H  0.16632568  0.90652927  0.33535095     0.08800
H417        H  0.04544034  0.85312152  0.27007750     0.06800
Br418      Br  0.07131396  0.80149231  0.23752113    -0.03800
C419        C  0.14506883  0.73852956  0.79038821    -0.10400
C420        C  0.13130754  0.76118240  0.81082713     0.05800
C421        C  0.09906433  0.74465186  0.84010275    -0.04200
C422        C  0.08087867  0.70601328  0.84756734    -0.08600
C423        C  0.09457235  0.68326557  0.82735728     0.04900
C424        C  0.12724790  0.69990072  0.79856016    -0.03600
Br425      Br  0.15130957  0.67315704  0.77221049    -0.03300
H426        H  0.17022678  0.75111916  0.76843968     0.10400
H427        H  0.05642935  0.69395880  0.87049116     0.06800
Br428      Br  0.08063997  0.77364843  0.87467355    -0.03800
C429        C  0.26668733  0.91959039  0.82134157    -0.10400
C430        C  0.25108103  0.88482814  0.79674865     0.05800
C431        C  0.27496497  0.87149782  0.77894106    -0.04200
C432        C  0.31274917  0.89116234  0.78885674    -0.08600
C433        C  0.32728388  0.92388121  0.81676170     0.04900
C434        C  0.30438714  0.93910527  0.83153067    -0.03600
Br435      Br  0.32264483  0.98616147  0.86582626    -0.03300
H436        H  0.24894611  0.93067988  0.83464161     0.08800
H437        H  0.33019165  0.87952806  0.77640397     0.06800
Br438      Br  0.25768802  0.82662128  0.74112258    -0.03800
C439        C  0.14703637  0.91495510  0.81822688    -0.10400
C440        C  0.12922976  0.87693943  0.80143945     0.05800
C441        C  0.09078842  0.85798774  0.79226537    -0.04200
C442        C  0.07112750  0.87705674  0.80073619    -0.08600
C443        C  0.08898769  0.91501344  0.81785784     0.04900
C444        C  0.12751868  0.93398693  0.82658206    -0.03600
Br445      Br  0.15551036  0.98504753  0.85215692    -0.03300
H446        H  0.17620050  0.92984989  0.82619679     0.08800
H447        H  0.04184493  0.86224959  0.79323077     0.06800
Br448      Br  0.06360022  0.80696586  0.76631187    -0.03800
C449        C  0.40797264  0.63734285  0.47300639    -0.10400
C450        C  0.36863213  0.61524470  0.46817420     0.05800
C451        C  0.35108174  0.57507840  0.45995281    -0.04200
C452        C  0.37315296  0.55884085  0.45457014    -0.08600
C453        C  0.41252234  0.58110786  0.45763320     0.04900
C454        C  0.42991448  0.62077658  0.46811826    -0.03600
Br455      Br  0.48280849  0.65418526  0.47760730    -0.03300
H456        H  0.42211298  0.66795512  0.48037848     0.08800
H457        H  0.35911959  0.52821633  0.44735218     0.06800
Br458      Br  0.29761596  0.53920371  0.45488185    -0.03800
C459        C  0.35557831  0.75614847  0.48186458    -0.10400
C460        C  0.37155660  0.73478752  0.46375254     0.05800
C461        C  0.40631687  0.75315113  0.43838306    -0.04200
C462        C  0.42307913  0.79143693  0.42988339    -0.08600
C463        C  0.40625156  0.81229978  0.44631779     0.04900
C464        C  0.37268497  0.79470552  0.47370871    -0.03600
Br465      Br  0.34663329  0.82002689  0.49797535    -0.03300
H466        H  0.32898959  0.74243160  0.50145904     0.08800
H467        H  0.44892337  0.80467550  0.40901177     0.06800
Br468      Br  0.43078573  0.72729323  0.41031153    -0.03800
C469        C  0.20159401  0.57060276  0.40899168    -0.10400
C470        C  0.17501474  0.57458367  0.43743466     0.05800
C471        C  0.18693299  0.59585480  0.47639041    -0.04200
C472        C  0.22512728  0.61460901  0.48447991    -0.08600
C473        C  0.25155856  0.61173934  0.45514524     0.04900
C474        C  0.23951828  0.58884551  0.41756615    -0.03600
Br475      Br  0.27427060  0.58417147  0.37525641    -0.03300
H476        H  0.19327684  0.55427866  0.37913978     0.08800
H477        H  0.23433653  0.63172263  0.51376652     0.06800
Br478      Br  0.15363593  0.60128696  0.52023380    -0.03800
C479        C  0.37444670  0.57802095  0.97844718    -0.10400
C480        C  0.41203279  0.59748626  0.95999072     0.05800
C481        C  0.42930491  0.63627678  0.95109310    -0.04200
C482        C  0.40823826  0.65384659  0.95861538    -0.08600
C483        C  0.37012592  0.63388302  0.97554096     0.04900
C484        C  0.35368484  0.59589985  0.98683800    -0.03600
Br485      Br  0.30406441  0.56746299  0.01606839    -0.03300
H486        H  0.36110670  0.54867568  0.98687042     0.08800
H487        H  0.42161937  0.68313981  0.94996773     0.06800
Br488      Br  0.48062196  0.66677960  0.92663035    -0.03800
C489        C  0.40313099  0.76634249  0.94697652    -0.10400
C490        C  0.37046039  0.75168446  0.97526456     0.05800
C491        C  0.35819806  0.77619221  0.99406948    -0.04200
C492        C  0.37718513  0.81400951  0.98211023    -0.08600
C493        C  0.40814994  0.82774750  0.95122720     0.04900
C494        C  0.42195585  0.80386428  0.93478378    -0.03600
Br495      Br  0.46626751  0.82011764  0.89564208    -0.03300
H496        H  0.41321190  0.74795391  0.93267701     0.08800
H497        H  0.36670834  0.83219937  0.99583059     0.06800
Br498      Br  0.31630240  0.75966187  0.03653112    -0.03800
C499        C  0.19901561  0.58286377  0.92306581    -0.10400
C500        C  0.17386765  0.59163178  0.94776052     0.05800
C501        C  0.18758667  0.61861797  0.98266733    -0.04200
C502        C  0.22571749  0.63666285  0.99106286    -0.08600
C503        C  0.25071099  0.62825501  0.96575179     0.04900
C504        C  0.23699598  0.60083840  0.93159455    -0.03600
Br505      Br  0.26951885  0.58972191  0.89262390    -0.03300
H506        H  0.18953408  0.56285441  0.89585297     0.08800
H507        H  0.23612941  0.65792979  0.01720258     0.06800
Br508      Br  0.15738966  0.63450053  0.01899512    -0.03800
C509        C  0.84835478  0.15302057  0.97900456     0.79000
N510        N  0.86717509  0.19185345  0.98150053    -0.79300
C511        C  0.84845786  0.21018903  0.98085144     0.81400
N512        N  0.81046804  0.18933230  0.97678998    -0.79300
C513        C  0.79131698  0.15042994  0.97362136     0.81500
N514        N  0.81043584  0.13245348  0.97435816    -0.81000
C515        C  0.84786918  0.13530831  0.46959140     0.79000
N516        N  0.81002262  0.11545154  0.46555322    -0.79300
C517        C  0.79169834  0.13382488  0.46336879     0.81400
N518        N  0.81144995  0.17264629  0.46455312    -0.79300
C519        C  0.84953406  0.19301067  0.46800124     0.81500
N520        N  0.86742645  0.17419474  0.47074269    -0.81000
C521        C  0.65082793  0.35762723  0.79703167     0.79000
N522        N  0.68950594  0.37860519  0.79409360    -0.79300
C523        C  0.70945594  0.36140679  0.79431463     0.81400
N524        N  0.69038888  0.32310845  0.79897949    -0.79300
C525        C  0.65182734  0.30206720  0.80265563     0.81500
N526        N  0.63236437  0.31949030  0.80160408    -0.81000
C527        C  0.64773450  0.34120868  0.28947558     0.79000
N528        N  0.62888196  0.30236170  0.28730687    -0.79300
C529        C  0.64771106  0.28393986  0.28713347     0.81400
N530        N  0.68597800  0.30503309  0.28997964    -0.79300
C531        C  0.70527979  0.34399616  0.29229207     0.81500
N532        N  0.68589444  0.36184711  0.29279710    -0.81000
N533        N  0.97024076  0.49366170  0.98727772    -0.07400
N534        N  0.96135496  0.47681689  0.02292705    -0.59500
N535        N  0.97419442  0.06281582  0.94004220    -0.07000
N536        N  0.96985343  0.09236108  0.94707313    -0.61600
N537        N  0.94092514  0.03055729  0.93916741    -0.06600
N538        N  0.91328112  0.03749570  0.94572425    -0.59500
N539        N  0.50373245  0.02564727  0.98771492    -0.06300
N540        N  0.51835825  0.03125977  0.02369812    -0.62000
C541        C  0.99172188  0.50041969  0.04524394     0.94800
C542        C  0.93171557  0.07621228  0.95027747     0.94600
N543        N  0.56095211  0.08697887  0.84417356    -0.07500
N544        N  0.57805232  0.11503211  0.81817651    -0.60100
N545        N  0.58008789  0.06265607  0.92858468    -0.05700
N546        N  0.60669064  0.07745254  0.95528323    -0.61300
N547        N  0.59160018  0.05169038  0.89256105    -0.07600
N548        N  0.62609915  0.05862412  0.89415595    -0.60300
N549        N  0.54953938  0.09800414  0.88026979    -0.05300
N550        N  0.55839613  0.13358348  0.87951639    -0.61400
Mn551      Mn  0.52725737  0.06307773  0.93500554     1.18400
C552        C  0.57612310  0.14386961  0.84064240     0.96900
C553        C  0.63527446  0.07463542  0.93352954     0.97600
N554        N  0.90487106  0.45673493  0.87694960    -0.07600
N555        N  0.87214845  0.45327640  0.87327118    -0.63900
N556        N  0.94595187  0.40892861  0.89199788    -0.06400
N557        N  0.93994374  0.37464910  0.89501263    -0.64600
N558        N  0.93356749  0.42008135  0.92720978    -0.07100
N559        N  0.91894773  0.39359307  0.95500282    -0.64200
N560        N  0.91630771  0.44459852  0.84170354    -0.06000
N561        N  0.89150486  0.43260546  0.81332860    -0.64900
Mn562      Mn  0.93626642  0.47480750  0.93335723     1.10700
C563        C  0.86431574  0.43865550  0.83327314     0.98100
C564        C  0.92355103  0.36556582  0.93460349     0.98200
N565        N  0.55522237  0.47782859  0.83239900    -0.07100
N566        N  0.58396183  0.47275211  0.82754049    -0.62500
N567        N  0.99176653  0.47901245  0.78266167    -0.06400
N568        N  0.97869679  0.46958319  0.74514956    -0.59200
N569        N  0.52455793  0.01185576  0.78249498    -0.07700
N570        N  0.53455496  0.02529173  0.74456186    -0.62000
N571        N  0.52269861  0.44471197  0.83254680    -0.06700
N572        N  0.52887866  0.41626971  0.82763327    -0.59200
Mn573      Mn  0.55877133  0.03253342  0.83705247     1.20200
Mn574      Mn  0.96864933  0.44318840  0.83653754     1.10100
Cl575      Cl  0.99772286  0.50344634  0.88542449    -0.87200
C576        C  0.56737846  0.43437030  0.82498676     0.95100
C577        C  0.00541615  0.49883297  0.72171485     0.94900
N578        N  0.97667028  0.48209773  0.48383444    -0.07400
N579        N  0.96897140  0.46792220  0.52106888    -0.59500
N580        N  0.97671900  0.04926841  0.43690288    -0.07000
N581        N  0.97163466  0.07832805  0.44371672    -0.61600
N582        N  0.94386000  0.01657435  0.43833832    -0.06600
N583        N  0.91577701  0.02261231  0.44620193    -0.59500
N584        N  0.50972036  0.01466409  0.48230781    -0.06300
N585        N  0.52521615  0.02319213  0.51829761    -0.62000
C586        C  0.99968926  0.49363909  0.54210829     0.94800
C587        C  0.93341264  0.06121168  0.44957354     0.94600
N588        N  0.55989086  0.07229528  0.33648233    -0.07500
N589        N  0.57309841  0.09821663  0.30829789    -0.60100
N590        N  0.58265400  0.05000266  0.41947693    -0.05700
N591        N  0.60943873  0.06379119  0.44565020    -0.61300
N592        N  0.59275425  0.03774691  0.38348102    -0.07600
N593        N  0.62662371  0.04292980  0.38442782    -0.60300
N594        N  0.54924073  0.08414083  0.37248630    -0.05300
N595        N  0.55475113  0.11829773  0.36951789    -0.61400
Mn596      Mn  0.53008761  0.05051360  0.42845185     1.18400
C597        C  0.56919997  0.12651199  0.32914498     0.96900
C598        C  0.63667274  0.05899314  0.42360182     0.97600
N599        N  0.90421601  0.44173214  0.37855946    -0.07600
N600        N  0.87012883  0.43630790  0.37838311    -0.63900
N601        N  0.94648606  0.39462787  0.38870464    -0.06400
N602        N  0.93838444  0.35939007  0.39077723    -0.64600
N603        N  0.93633786  0.40662700  0.42496836    -0.07100
N604        N  0.92094269  0.37978376  0.45237162    -0.64200
N605        N  0.91410229  0.42979094  0.34206097    -0.06000
N606        N  0.88680698  0.41603158  0.31640523    -0.64900
Mn607      Mn  0.93947778  0.46136826  0.43213661     1.10700
C608        C  0.85957893  0.42059516  0.33929834     0.98100
C609        C  0.92253747  0.35053751  0.43065353     0.98200
N610        N  0.55384531  0.46281467  0.32499030    -0.07100
N611        N  0.58222830  0.45710002  0.31963201    -0.62500
N612        N  0.98848466  0.46489548  0.27871204    -0.06400
N613        N  0.97380786  0.45780612  0.24232212    -0.59200
N614        N  0.52166205  0.99728921  0.27834483    -0.07700
N615        N  0.53028979  0.01282243  0.24196267    -0.62000
N616        N  0.52099642  0.42995637  0.32555846    -0.06700
N617        N  0.52651571  0.40107262  0.32042059    -0.59200
Mn618      Mn  0.55786278  0.01783350  0.33005004     1.20200
Mn619      Mn  0.96695122  0.42867200  0.33277251     1.10100
Cl620      Cl  0.99855121  0.48951718  0.38082619    -0.87200
C621        C  0.56492030  0.41858566  0.31718907     0.95100
C622        C  0.00017703  0.48822488  0.21986602     0.94900
C623        C  0.98193884  0.46295015  0.65388960    -0.10400
C624        C  0.00493634  0.49831572  0.67569046     0.05800
C625        C  0.52696253  0.03159099  0.65287009    -0.04200
C626        C  0.52570661  0.02885588  0.60925041    -0.08600
C627        C  0.00219440  0.49364309  0.58755665     0.04900
C628        C  0.98027806  0.46028298  0.61033791    -0.03600
Br629      Br  0.94827817  0.41003856  0.58443113    -0.03300
H630        H  0.96515034  0.43692791  0.67076946     0.08800
H631        H  0.54231914  0.05491829  0.59242478     0.06800
Br632      Br  0.55704669  0.08208574  0.67905000    -0.03800
C633        C  0.51982392  0.52844698  0.11312782    -0.10400
C634        C  0.99404878  0.49584554  0.08931705     0.05800
C635        C  0.97043411  0.46080051  0.10892774    -0.04200
C636        C  0.97257969  0.45935052  0.15162955    -0.08600
C637        C  0.99823454  0.49200180  0.17535360     0.04900
C638        C  0.52216533  0.52700902  0.15565352    -0.03600
Br639      Br  0.55812872  0.57450068  0.18386270    -0.03300
H640        H  0.53814403  0.55563544  0.09863227     0.08800
H641        H  0.95443624  0.43216138  0.16615761     0.06800
Br642      Br  0.93603197  0.41335510  0.07952728    -0.03800
C643        C  0.58882778  0.22463847  0.31217841    -0.10400
C644        C  0.62567477  0.24181157  0.29137627     0.05800
C645        C  0.64114377  0.21871868  0.27852517    -0.04200
C646        C  0.62107069  0.18050304  0.28904718    -0.08600
C647        C  0.58583023  0.16456632  0.31279269     0.04900
C648        C  0.56905534  0.18652699  0.32317161    -0.03600
Br649      Br  0.51920317  0.16589469  0.35196573    -0.03300
H650        H  0.57585013  0.24134203  0.32177304     0.08800
H651        H  0.63398796  0.16364416  0.28023257     0.06800
Br652      Br  0.68914164  0.23667456  0.24645100    -0.03800
C653        C  0.75677531  0.39297503  0.33605305    -0.10400
C654        C  0.74578870  0.36659435  0.30100290     0.05800
C655        C  0.77333967  0.36131805  0.27642444    -0.04200
C656        C  0.81037385  0.38011903  0.28877992    -0.08600
C657        C  0.82103527  0.40486685  0.32535987     0.04900
C658        C  0.79391721  0.41221812  0.34831777    -0.03600
Br659      Br  0.80499432  0.44829149  0.39622625    -0.03300
H660        H  0.73603495  0.39795937  0.35470987     0.08800
H661        H  0.83075206  0.37481903  0.26982780     0.06800
Br662      Br  0.76272926  0.33089041  0.22424319    -0.03800
C663        C  0.64028267  0.39488799  0.32032403    -0.10400
C664        C  0.62639809  0.36090307  0.29446973     0.05800
C665        C  0.59177323  0.34592427  0.27620223    -0.04200
C666        C  0.57175367  0.36468028  0.28466712    -0.08600
C667        C  0.58578465  0.39857482  0.31060719     0.04900
C668        C  0.62041199  0.41362001  0.32861326    -0.03600
Br669      Br  0.64093470  0.45803800  0.36736152    -0.03300
H670        H  0.66636987  0.40654003  0.33533332     0.08800
H671        H  0.54548924  0.35318215  0.27006902     0.06800
Br672      Br  0.57134018  0.30153777  0.23749327    -0.03800
C673        C  0.64507774  0.23853636  0.79043768    -0.10400
C674        C  0.63129914  0.26117778  0.81086685     0.05800
C675        C  0.59904910  0.24463564  0.84013238    -0.04200
C676        C  0.58087366  0.20599712  0.84759390    -0.08600
C677        C  0.59458301  0.18326086  0.82738963     0.04900
C678        C  0.62726653  0.19990816  0.79860631    -0.03600
Br679      Br  0.65135045  0.17318136  0.77227388    -0.03300
H680        H  0.67024198  0.25113455  0.76849819     0.10400
H681        H  0.55641854  0.19393307  0.87050881     0.06800
Br682      Br  0.58059868  0.27361494  0.87469140    -0.03800
C683        C  0.76666209  0.41958068  0.82137568    -0.10400
C684        C  0.75106092  0.38482847  0.79676587     0.05800
C685        C  0.77494917  0.37150917  0.77893921    -0.04200
C686        C  0.81273421  0.39117329  0.78885339    -0.08600
C687        C  0.82726462  0.42388124  0.81677521     0.04900
C688        C  0.80436199  0.43909552  0.83156305    -0.03600
Br689      Br  0.82260870  0.48613690  0.86588462    -0.03300
H690        H  0.74891620  0.43066117  0.83469069     0.08800
H691        H  0.83018051  0.37954717  0.77638543     0.06800
Br692      Br  0.75767480  0.32664908  0.74109541    -0.03800
C693        C  0.64700434  0.41493659  0.81828720    -0.10400
C694        C  0.62920851  0.37693125  0.80146757     0.05800
C695        C  0.59077976  0.35799058  0.79225234    -0.04200
C696        C  0.57111946  0.37706132  0.80071030    -0.08600
C697        C  0.58896973  0.41500898  0.81786150     0.04900
C698        C  0.62748749  0.43396969  0.82663155    -0.03600
Br699      Br  0.65545514  0.48501030  0.85226182    -0.03300
H700        H  0.67615841  0.42982093  0.82629079     0.08800
H701        H  0.54184706  0.36226406  0.79317180     0.06800
Br702      Br  0.56361543  0.30698434  0.76625612    -0.03800
C703        C  0.90793837  0.13731922  0.47308680    -0.10400
C704        C  0.86860142  0.11523045  0.46823380     0.05800
C705        C  0.85104607  0.07506419  0.46000287    -0.04200
C706        C  0.87311190  0.05882073  0.45461595    -0.08600
C707        C  0.91248094  0.08108119  0.45768106     0.04900
C708        C  0.92987506  0.12074624  0.46819270    -0.03600
Br709      Br  0.98276530  0.15413830  0.47770524    -0.03300
H710        H  0.92208069  0.16793030  0.48047320     0.08800
H711        H  0.85907542  0.02819755  0.44738414     0.06800
Br712      Br  0.79758126  0.03919730  0.45491280    -0.03800
C713        C  0.85555286  0.25614241  0.48186885    -0.10400
C714        C  0.87154846  0.23478863  0.46378886     0.05800
C715        C  0.90633034  0.25316337  0.43845759    -0.04200
C716        C  0.92309278  0.29144871  0.42995400    -0.08600
C717        C  0.90624657  0.31230188  0.44635077     0.04900
C718        C  0.87266139  0.29470004  0.47371223    -0.03600
Br719      Br  0.84658984  0.32001270  0.49793314    -0.03300
H720        H  0.82894918  0.24241917  0.50143678     0.08800
H721        H  0.94895282  0.30469454  0.40910785     0.06800
Br722      Br  0.93083484  0.22732304  0.41044220    -0.03800
C723        C  0.70158809  0.07060274  0.40896436    -0.10400
C724        C  0.67500231  0.07456256  0.43741970     0.05800
C725        C  0.68691549  0.09581442  0.47638579    -0.04200
C726        C  0.72511208  0.11458212  0.48446988    -0.08600
C727        C  0.75155020  0.11173759  0.45512288     0.04900
C728        C  0.73951417  0.08885178  0.41753802    -0.03600
Br729      Br  0.77427259  0.08418788  0.37522875    -0.03300
H730        H  0.69327379  0.05428919  0.37910706     0.08800
H731        H  0.73431633  0.13168134  0.51376472     0.06800
Br732      Br  0.65360509  0.10119166  0.52025742    -0.03800
C733        C  0.87445831  0.07802985  0.97839668    -0.10400
C734        C  0.91205013  0.09750018  0.95995738     0.05800
C735        C  0.92932992  0.13629824  0.95108567    -0.04200
C736        C  0.90826557  0.15387068  0.95861456    -0.08600
C737        C  0.87014831  0.13390300  0.97552351     0.04900
C738        C  0.85369932  0.09591133  0.98679657    -0.03600
Br739      Br  0.80407137  0.06746355  0.01600830    -0.03300
H740        H  0.86111164  0.04867866  0.98680160     0.08800
H741        H  0.92165352  0.18317066  0.94998620     0.06800
Br742      Br  0.98065707  0.16681143  0.92665565    -0.03800
C743        C  0.90317002  0.26637994  0.94700125    -0.10400
C744        C  0.87048468  0.25171094  0.97526871     0.05800
C745        C  0.85820897  0.27621134  0.99406142    -0.04200
C746        C  0.87719515  0.31402965  0.98210666    -0.08600
C747        C  0.90817291  0.32777664  0.95124064     0.04900
C748        C  0.92199437  0.30390374  0.93481354    -0.03600
Br749      Br  0.96632751  0.32017719  0.89570194    -0.03300
H750        H  0.91326297  0.24799903  0.93271274     0.08800
H751        H  0.86670703  0.33221240  0.99581488     0.06800
Br752      Br  0.81629478  0.25967104  0.03649988    -0.03800
C753        C  0.69904449  0.08288068  0.92305205    -0.10400
C754        C  0.67388676  0.09162849  0.94775881     0.05800
C755        C  0.68759875  0.11860535  0.98267491    -0.04200
C756        C  0.72573315  0.13666491  0.99106464    -0.08600
C757        C  0.75073537  0.12827623  0.96574195     0.04900
C758        C  0.73702675  0.10086617  0.93157823    -0.03600
Br759      Br  0.76955964  0.08976969  0.89259955    -0.03300
H760        H  0.68956858  0.06287783  0.89583372     0.08800
H761        H  0.73613914  0.15792379  0.01721156     0.06800
Br762      Br  0.65738319  0.13444806  0.01903153    -0.03800
C763        C  0.84843077  0.65312161  0.97917508     0.79000
N764        N  0.86725751  0.69195643  0.98173823    -0.79300
C765        C  0.84855883  0.71030802  0.98106108     0.81400
N766        N  0.81058368  0.68946590  0.97690626    -0.79300
C767        C  0.79142608  0.65056417  0.97366688     0.81500
N768        N  0.81052694  0.63257229  0.97443120    -0.81000
C769        C  0.84801892  0.63538244  0.46935804     0.79000
N770        N  0.81016445  0.61553626  0.46537264    -0.79300
C771        C  0.79184375  0.63392537  0.46326035     0.81400
N772        N  0.81160433  0.67274496  0.46446175    -0.79300
C773        C  0.84969300  0.69309318  0.46786166     0.81500
N774        N  0.86758253  0.67426636  0.47053458    -0.81000
C775        C  0.65088948  0.85766560  0.79694563     0.79000
N776        N  0.68956955  0.87865030  0.79401148    -0.79300
C777        C  0.70952188  0.86145284  0.79423949     0.81400
N778        N  0.69045584  0.82315870  0.79892385    -0.79300
C779        C  0.65189524  0.80211242  0.80260568     0.81500
N780        N  0.63242910  0.81952974  0.80153249    -0.81000
C781        C  0.64780892  0.84126755  0.28943316     0.79000
N782        N  0.62894254  0.80242362  0.28730015    -0.79300
C783        C  0.64774082  0.78399622  0.28729099     0.81400
N784        N  0.68598955  0.80507947  0.29026477    -0.79300
C785        C  0.70530385  0.84404247  0.29254308     0.81500
N786        N  0.68594921  0.86190317  0.29288562    -0.81000
N787        N  0.97024568  0.99372651  0.98733309    -0.07400
N788        N  0.96129329  0.97690780  0.02301123    -0.59500
N789        N  0.97414987  0.56277650  0.94005912    -0.07000
N790        N  0.96982703  0.59232956  0.94715106    -0.61600
N791        N  0.94087458  0.53052496  0.93920655    -0.06600
N792        N  0.91324156  0.53748217  0.94583692    -0.59500
N793        N  0.50372945  0.52572517  0.98781799    -0.06300
N794        N  0.51827571  0.53138192  0.02387233    -0.62000
C795        C  0.99162526  0.00050981  0.04537304     0.94800
C796        C  0.93169370  0.57620290  0.95041664     0.94600
N797        N  0.56098126  0.58701799  0.84420613    -0.07500
N798        N  0.57812609  0.61508439  0.81822273    -0.60100
N799        N  0.58013837  0.56272088  0.92863032    -0.05700
N800        N  0.60677043  0.57755872  0.95530038    -0.61300
N801        N  0.59164514  0.55175694  0.89259780    -0.07600
N802        N  0.62616479  0.55873062  0.89416384    -0.60300
N803        N  0.54958394  0.59805414  0.88030711    -0.05300
N804        N  0.55849005  0.63365170  0.87956740    -0.61400
Mn805      Mn  0.52728647  0.56313422  0.93505705     1.18400
C806        C  0.57623428  0.64393802  0.84070112     0.96900
C807        C  0.63536397  0.57476690  0.93352501     0.97600
N808        N  0.90491008  0.95673195  0.87697742    -0.07600
N809        N  0.87218914  0.95326977  0.87328058    -0.63900
N810        N  0.94600064  0.90895858  0.89213387    -0.06400
N811        N  0.94001165  0.87469524  0.89521108    -0.64600
N812        N  0.93360923  0.92013779  0.92731900    -0.07100
N813        N  0.91900398  0.89368949  0.95515613    -0.64200
N814        N  0.91634000  0.94456261  0.84175427    -0.06000
N815        N  0.89153617  0.93254529  0.81337415    -0.64900
Mn816      Mn  0.93630677  0.97485064  0.93338893     1.10700
C817        C  0.86435119  0.93861349  0.83329352     0.98100
C818        C  0.92362462  0.86565730  0.93481366     0.98200
N819        N  0.55520156  0.97779219  0.83232595    -0.07100
N820        N  0.58393703  0.97270981  0.82747696    -0.62500
N821        N  0.99178604  0.97894791  0.78271687    -0.06400
N822        N  0.97871175  0.96947569  0.74520147    -0.59200
N823        N  0.52452306  0.51183617  0.78254692    -0.07700
N824        N  0.53449732  0.52525947  0.74460816    -0.62000
N825        N  0.52267426  0.94467863  0.83244151    -0.06700
N826        N  0.52885048  0.91623126  0.82751550    -0.59200
Mn827      Mn  0.55878130  0.53256256  0.83709775     1.20200
Mn828      Mn  0.96868726  0.94317326  0.83663058     1.10100
Cl829      Cl  0.99776918  0.00346973  0.88547682    -0.87200
C830        C  0.56735108  0.93432730  0.82489718     0.95100
C831        C  0.00539733  0.99874101  0.72177090     0.94900
N832        N  0.97680718  0.98214058  0.48400750    -0.07400
N833        N  0.96920086  0.96791469  0.52119866    -0.59500
N834        N  0.97676128  0.54923260  0.43659325    -0.07000
N835        N  0.97171779  0.57831714  0.44337865    -0.61600
N836        N  0.94388354  0.51655702  0.43799387    -0.06600
N837        N  0.91582674  0.52263367  0.44580537    -0.59500
N838        N  0.50989674  0.51478252  0.48247663    -0.06300
N839        N  0.52548338  0.52328764  0.51840196    -0.62000
C840        C  0.99995540  0.99363835  0.54218125     0.94800
C841        C  0.93350021  0.56123567  0.44917531     0.94600
N842        N  0.55981094  0.57238678  0.33663728    -0.07500
N843        N  0.57296050  0.59828647  0.30844327    -0.60100
N844        N  0.58276106  0.55021108  0.41955095    -0.05700
N845        N  0.60958773  0.56403810  0.44567708    -0.61300
N846        N  0.59283552  0.53795260  0.38353889    -0.07600
N847        N  0.62672750  0.54317426  0.38442540    -0.60300
N848        N  0.54917903  0.58423443  0.37265466    -0.05300
N849        N  0.55464921  0.61837507  0.36968356    -0.61400
Mn850      Mn  0.53014696  0.55064221  0.42863432     1.18400
C851        C  0.56904922  0.62657075  0.32929421     0.96900
C852        C  0.63681878  0.55926220  0.42357996     0.97600
N853        N  0.90420897  0.94177263  0.37886631    -0.07600
N854        N  0.87011385  0.93634065  0.37872192    -0.63900
N855        N  0.94658403  0.89473946  0.38885109    -0.06400
N856        N  0.93852244  0.85951364  0.39088551    -0.64600
N857        N  0.93645819  0.90671700  0.42514343    -0.07100
N858        N  0.92111757  0.87987076  0.45253359    -0.64200
N859        N  0.91409089  0.92986193  0.34234275    -0.06000
N860        N  0.88679261  0.91611999  0.31670190    -0.64900
Mn861      Mn  0.93953082  0.96141513  0.43239085     1.10700
C862        C  0.85956455  0.92065865  0.33962653     0.98100
C863        C  0.92272373  0.85064876  0.43077055     0.98200
N864        N  0.55376560  0.96266381  0.32487835    -0.07100
N865        N  0.58214819  0.95695536  0.31949749    -0.62500
N866        N  0.98837254  0.96496586  0.27887208    -0.06400
N867        N  0.97365606  0.95786811  0.24250384    -0.59200
N868        N  0.52161966  0.49739261  0.27850573    -0.07700
N869        N  0.53017486  0.51294360  0.24214585    -0.62000
N870        N  0.52091557  0.92980584  0.32541702    -0.06700
N871        N  0.52643884  0.90092298  0.32023354    -0.59200
Mn872      Mn  0.55787652  0.51797185  0.33016924     1.20200
Mn873      Mn  0.96694262  0.92876682  0.33294025     1.10100
Cl874      Cl  0.99854699  0.98960377  0.38099521    -0.87200
C875        C  0.56484582  0.91844689  0.31701193     0.95100
C876        C  0.99999171  0.98829741  0.22003817     0.94900
C877        C  0.98271609  0.96274021  0.65375595    -0.10400
C878        C  0.00495411  0.99821485  0.67575478     0.05800
C879        C  0.52613801  0.53170342  0.65320801    -0.04200
C880        C  0.52508447  0.52906230  0.60956763    -0.08600
C881        C  0.00246486  0.99365839  0.58761410     0.04900
C882        C  0.98119821  0.96013333  0.61017570    -0.03600
Br883      Br  0.95040816  0.90979662  0.58383566    -0.03300
H884        H  0.96645982  0.93661151  0.67049808     0.08800
H885        H  0.54099131  0.55525939  0.59293586     0.06800
Br886      Br  0.55458251  0.58224278  0.67988026    -0.03800
C887        C  0.52004618  0.02828438  0.11287944    -0.10400
C888        C  0.99387638  0.99593942  0.08947867     0.05800
C889        C  0.97020310  0.96090602  0.10910499    -0.04200
C890        C  0.97232362  0.95945291  0.15181691    -0.08600
C891        C  0.99801896  0.99208448  0.17553338     0.04900
C892        C  0.52238028  0.02685818  0.15540698    -0.03600
Br893      Br  0.55828139  0.07437207  0.18363633    -0.03300
H894        H  0.53834475  0.05547780  0.09838821     0.08800
H895        H  0.95414386  0.93227184  0.16635268     0.06800
Br896      Br  0.93577160  0.91347031  0.07970874    -0.03800
C897        C  0.58878483  0.72472131  0.31225790    -0.10400
C898        C  0.62567037  0.74187624  0.29155175     0.05800
C899        C  0.64113538  0.71877103  0.27879687    -0.04200
C900        C  0.62101369  0.68055632  0.28930984    -0.08600
C901        C  0.58572731  0.66463167  0.31295509     0.04900
C902        C  0.56896179  0.68660576  0.32324842    -0.03600
Br903      Br  0.51906191  0.66598100  0.35191509    -0.03300
H904        H  0.57581388  0.74144107  0.32177821     0.08800
H905        H  0.63392630  0.66368567  0.28056892     0.06800
Br906      Br  0.68919148  0.73670381  0.24686714    -0.03800
C907        C  0.75678541  0.89307512  0.33630636    -0.10400
C908        C  0.74579631  0.86663560  0.30130386     0.05800
C909        C  0.77333873  0.86131349  0.27678324    -0.04200
C910        C  0.81035958  0.88011144  0.28915893    -0.08600
C911        C  0.82102545  0.90492054  0.32568906     0.04900
C912        C  0.79392892  0.91233441  0.34857682    -0.03600
Br913      Br  0.80507349  0.94855645  0.39634657    -0.03300
H914        H  0.73605431  0.89810717  0.35490561     0.08800
H915        H  0.83072778  0.87476960  0.27025229     0.06800
Br916      Br  0.76274939  0.83085094  0.22462710    -0.03800
C917        C  0.64025876  0.89487288  0.32025614    -0.10400
C918        C  0.62647672  0.86095016  0.29431432     0.05800
C919        C  0.59190983  0.84597294  0.27592184    -0.04200
C920        C  0.57182576  0.86466121  0.28437518    -0.08600
C921        C  0.58574052  0.89847771  0.31043428     0.04900
C922        C  0.62032144  0.91352961  0.32854492    -0.03600
Br923      Br  0.64067399  0.95783483  0.36745923    -0.03300
H924        H  0.66629909  0.90651530  0.33535847     0.08800
H925        H  0.54560464  0.85317251  0.26968814     0.06800
Br926      Br  0.57164660  0.80167299  0.23708422    -0.03800
C927        C  0.64526083  0.73862362  0.79057223    -0.10400
C928        C  0.63137940  0.76122597  0.81084841     0.05800
C929        C  0.59905792  0.74465381  0.84001981    -0.04200
C930        C  0.58090914  0.70602508  0.84751823    -0.08600
C931        C  0.59471044  0.68332937  0.82744820     0.04900
C932        C  0.62747772  0.70000981  0.79879013    -0.03600
Br933      Br  0.65171535  0.67335258  0.77274264    -0.03300
H934        H  0.67048661  0.75124268  0.76872333     0.10400
H935        H  0.55639538  0.69393492  0.87035124     0.06800
Br936      Br  0.58045313  0.77357274  0.87441438    -0.03800
C937        C  0.76673273  0.91960798  0.82131843    -0.10400
C938        C  0.75112832  0.88486581  0.79669299     0.05800
C939        C  0.77500652  0.87152641  0.77888770    -0.04200
C940        C  0.81278169  0.89116314  0.78883450    -0.08600
C941        C  0.82731120  0.92385967  0.81677324     0.04900
C942        C  0.80441950  0.93909066  0.83154567    -0.03600
Br943      Br  0.82265447  0.98610481  0.86591583    -0.03300
H944        H  0.74899393  0.93069899  0.83462454     0.08800
H945        H  0.83021830  0.87952254  0.77637995     0.06800
Br946      Br  0.75772760  0.82666606  0.74104202    -0.03800
C947        C  0.64698711  0.91491577  0.81833512    -0.10400
C948        C  0.62925678  0.87695715  0.80137743     0.05800
C949        C  0.59086357  0.85803162  0.79203364    -0.04200
C950        C  0.57116754  0.87706901  0.80050010    -0.08600
C951        C  0.58895296  0.91497258  0.81778548     0.04900
C952        C  0.62743624  0.93391568  0.82668874    -0.03600
Br953      Br  0.65529787  0.98488014  0.85252797    -0.03300
H954        H  0.67610950  0.92978099  0.82644184     0.08800
H955        H  0.54192489  0.86228709  0.79285718     0.06800
Br956      Br  0.56381871  0.80709962  0.76583328    -0.03800
C957        C  0.90811332  0.63739998  0.47263565    -0.10400
C958        C  0.86875234  0.61530441  0.46791898     0.05800
C959        C  0.85117320  0.57513414  0.45973194    -0.04200
C960        C  0.87322319  0.55887801  0.45432800    -0.08600
C961        C  0.91260731  0.58113704  0.45727921     0.04900
C962        C  0.93004584  0.62082392  0.46767101    -0.03600
Br963      Br  0.98300463  0.65426646  0.47685876    -0.03300
H964        H  0.92228230  0.66802192  0.47995040     0.08800
H965        H  0.85915977  0.52824460  0.44715666     0.06800
Br966      Br  0.79770173  0.53927816  0.45467638    -0.03800
C967        C  0.85567591  0.75619114  0.48177026    -0.10400
C968        C  0.87170772  0.73486969  0.46370104     0.05800
C969        C  0.90652488  0.75327843  0.43843343    -0.04200
C970        C  0.92331303  0.79158631  0.43002374    -0.08600
C971        C  0.90643169  0.81240594  0.44641242     0.04900
C972        C  0.87278315  0.79475368  0.47366381    -0.03600
Br973      Br  0.84659696  0.81998785  0.49773169    -0.03300
H974        H  0.82903456  0.74243426  0.50126928     0.08800
H975        H  0.94920728  0.80487141  0.40923365     0.06800
Br976      Br  0.93103049  0.72746249  0.41034071    -0.03800
C977        C  0.70172129  0.57085025  0.40886263    -0.10400
C978        C  0.67515802  0.57481520  0.43735624     0.05800
C979        C  0.68709147  0.59602378  0.47633870    -0.04200
C980        C  0.72528231  0.61472727  0.48441672    -0.08600
C981        C  0.75169445  0.61186736  0.45504106     0.04900
C982        C  0.73964234  0.58903920  0.41742726    -0.03600
Br983      Br  0.77437771  0.58438054  0.37507514    -0.03300
H984        H  0.69339250  0.55457364  0.37898797     0.08800
H985        H  0.73450467  0.63179576  0.51372506     0.06800
Br986      Br  0.65382106  0.60143354  0.52023821    -0.03800
C987        C  0.87442604  0.57803687  0.97846728    -0.10400
C988        C  0.91206066  0.59752563  0.96015349     0.05800
C989        C  0.92942026  0.63638597  0.95147785    -0.04200
C990        C  0.90837431  0.65398014  0.95899618    -0.08600
C991        C  0.87020854  0.63398652  0.97574072     0.04900
C992        C  0.85369818  0.59595137  0.98689605    -0.03600
Br993      Br  0.80403100  0.56749361  0.01601850    -0.03300
H994        H  0.86102183  0.54864683  0.98675891     0.08800
H995        H  0.92182268  0.68332487  0.95049742     0.06800
Br996      Br  0.98085918  0.66699604  0.92738756    -0.03800
C997        C  0.90338547  0.76657253  0.94743262    -0.10400
C998        C  0.87060192  0.75184572  0.97555625     0.05800
C999        C  0.85823313  0.77630137  0.99423688    -0.04200
C1000       C  0.87720792  0.81411573  0.98227407    -0.08600
C1001       C  0.90827021  0.82790279  0.95151739     0.04900
C1002       C  0.92220085  0.80409525  0.93524248    -0.03600
Br1003     Br  0.96667359  0.82047321  0.89633473    -0.03300
H1004       H  0.91355906  0.74823510  0.93324024     0.08800
H1005       H  0.86664225  0.83225821  0.99587511     0.06800
Br1006     Br  0.81619749  0.75970461  0.03652408    -0.03800
C1007       C  0.69916002  0.58303961  0.92303362    -0.10400
C1008       C  0.67399727  0.59179026  0.94773068     0.05800
C1009       C  0.68771488  0.61878147  0.98263499    -0.04200
C1010       C  0.72584604  0.63683398  0.99103866    -0.08600
C1011       C  0.75084957  0.62843238  0.96574035     0.04900
C1012       C  0.73714388  0.60102300  0.93157394    -0.03600
Br1013     Br  0.76968636  0.58991776  0.89262470    -0.03300
H1014       H  0.68968239  0.56302480  0.89582454     0.08800
H1015       H  0.73624736  0.65809443  0.01718552     0.06800
Br1016     Br  0.65750918  0.63465147  0.01896330    -0.03800
loop_ 
_geom_bond_atom_site_label_1 
_geom_bond_atom_site_label_2 
_geom_bond_distance 
_geom_bond_site_symmetry_2 
_ccdc_geom_bond_type 
C1            N2   1.356       .  A
C1            N6   1.359       .  A
C1          C229   1.483       .  S
N2            C3   1.356       .  A
C3            N4   1.358       .  A
C3          C236   1.473       .  S
N4            C5   1.358       .  A
C5            N6   1.358       .  A
C5          C249   1.475       .  S
C7            N8   1.353       .  A
C7           N12   1.358       .  A
C7          C196   1.484       .  S
N8            C9   1.352       .  A
C9           N10   1.355       .  A
C9          C219   1.462       .  S
N10          C11   1.358       .  A
C11          N12   1.356       .  A
C11         C206   1.474       .  S
C13          N14   1.360       .  A
C13          N18   1.353       .  A
C13         C186   1.481       .  S
N14          C15   1.359       .  A
C15          N16   1.357       .  A
C15         C176   1.477       .  S
N16          C17   1.356       .  A
C17          N18   1.353       .  A
C17         C166   1.471       .  S
C19          N20   1.357       .  A
C19          N24   1.360       .  A
C19         C156   1.483       .  S
N20          C21   1.359       .  A
C21          N22   1.361       .  A
C21         C136   1.486       .  S
N22          C23   1.360       .  A
C23          N24   1.358       .  A
C23         C146   1.479       .  S
N25          N26   1.317   1_556  A
N25         N793   1.314       .  A
N25         Mn54   2.182       .  S
N26          C33   1.350       .  A
N27          N29   1.314       .  A
N27          N28   1.320       .  A
N27        Mn551   2.198       .  S
N28          C34   1.352       .  A
N29          N30   1.319       .  A
N29        Mn308   2.197   1_545  S
N30          C34   1.354       .  A
N31          N32   1.317   1_556  A
N31         N787   1.314   1_445  A
N31         Mn43   2.188       .  S
N32         C795   1.353   1_455  A
C33         N794   1.353       .  A
C33         C126   1.472       .  S
C34         C226   1.481       .  S
N35          N41   1.315       .  A
N35          N36   1.319       .  A
N35         Mn65   2.192       .  S
N36          C44   1.352       .  A
N37          N38   1.321       .  A
N37          N39   1.314       .  A
N37         Mn43   2.202       .  S
N38          C45   1.354       .  A
N39          N40   1.319       .  A
N39         Mn65   2.198       .  S
N40          C45   1.354       .  A
N41          N42   1.315       .  A
N41         Mn43   2.185       .  S
N42          C44   1.351       .  A
Mn43        N535   2.199   1_455  S
Mn43       Cl829   2.539   1_455  S
C44         C169   1.472       .  S
C45         C246   1.488       .  S
N46          N47   1.318       .  A
N46          N52   1.315       .  A
N46         Mn54   2.194       .  S
N47          C55   1.352       .  A
N48          N50   1.314       .  A
N48          N49   1.317       .  A
N48         Mn66   2.189       .  S
N49          C56   1.352       .  A
N50          N51   1.321       .  A
N50         Mn54   2.194       .  S
N51          C56   1.353       .  A
N52          N53   1.320       .  A
N52         Mn66   2.205       .  S
N53          C55   1.354       .  A
Mn54        N283   2.196       .  S
Mn54        Cl67   2.544       .  S
C55         C179   1.477       .  S
C56         C239   1.476       .  S
N57          N58   1.314       .  A
N57          N63   1.315       .  A
N57        Mn319   2.179       .  S
N58          C68   1.347       .  A
N59          N60   1.316       .  A
N59         N823   1.314       .  A
N59         Mn66   2.181       .  S
N60          C69   1.350       .  A
N61          N62   1.320       .  A
N61         N821   1.314   1_445  A
N61         Mn65   2.200       .  S
N62         C831   1.354   1_545  A
N63          N64   1.323       .  A
N63        Mn574   2.213   1_455  S
N64          C68   1.358       .  A
Mn65        N311   2.179   1_545  S
Mn65       Cl829   2.540   1_455  S
Mn66        N571   2.213       .  S
Mn66        Cl67   2.542       .  S
Cl67       Mn805   2.539       .  S
Cl67       Mn827   2.540       .  S
C68         C189   1.480       .  S
C69         N824   1.354       .  A
C69         C116   1.475       .  S
N70          N71   1.319       .  A
N70         N838   1.315       .  A
N70         Mn99   2.196       .  S
N71          C78   1.353       .  A
N72          N74   1.313       .  A
N72          N73   1.319       .  A
N72        Mn596   2.184       .  S
N73          C79   1.352       .  A
N74          N75   1.314       .  A
N74        Mn353   2.179   1_545  S
N75          C79   1.351       .  A
N76          N77   1.317       .  A
N76         N832   1.315   1_445  A
N76         Mn88   2.188       .  S
N77         C840   1.352   1_445  A
C78         N839   1.352       .  A
C78         C119   1.474       .  S
C79         C199   1.474       .  S
N80          N86   1.314       .  A
N80          N81   1.319       .  A
N80        Mn110   2.197       .  S
N81          C89   1.353       .  A
N82          N83   1.318       .  A
N82          N84   1.312       .  A
N82         Mn88   2.190       .  S
N83          C90   1.352       .  A
N84          N85   1.318       .  A
N84        Mn110   2.187       .  S
N85          C90   1.354       .  A
N86          N87   1.320       .  A
N86         Mn88   2.197       .  S
N87          C89   1.353       .  A
Mn88        N580   2.184   1_455  S
Mn88       Cl874   2.544   1_445  S
C89         C139   1.473       .  S
C90         C216   1.482       .  S
N91          N92   1.320       .  A
N91          N97   1.315       .  A
N91         Mn99   2.201       .  S
N92         C100   1.353       .  A
N93          N95   1.315       .  A
N93          N94   1.318       .  A
N93        Mn111   2.201       .  S
N94         C101   1.353       .  A
N95          N96   1.319       .  A
N95         Mn99   2.184       .  S
N96         C101   1.350       .  A
N97          N98   1.322       .  A
N97        Mn111   2.215       .  S
N98         C100   1.357       .  A
Mn99        N328   2.179       .  S
Mn99       Cl112   2.538       .  S
C100        C149   1.490       .  S
C101        C209   1.473       .  S
N102        N103   1.316       .  A
N102        N108   1.316       .  A
N102       Mn364   2.185       .  S
N103        C113   1.349       .  A
N104        N105   1.320       .  A
N104        N868   1.314       .  A
N104       Mn111   2.198       .  S
N105        C114   1.355       .  A
N106        N107   1.314   1_565  A
N106        N866   1.314   1_455  A
N106       Mn110   2.172   1_565  S
N107        C876   1.347   1_445  A
N108        N109   1.323       .  A
N108       Mn619   2.215   1_455  S
N109        C113   1.356       .  A
Mn110       N356   2.186   1_545  S
Mn110      Cl874   2.536   1_445  S
Mn111       N616   2.214       .  S
Mn111      Cl112   2.548       .  S
Cl112      Mn850   2.544       .  S
Cl112      Mn872   2.536       .  S
C113        C159   1.476       .  S
C114        N869   1.347       .  A
C114        C129   1.473       .  S
C115        C116   1.406       .  A
C115        C120   1.396       .  A
C115        H122   1.084       .  S
C116        C879   1.409       .  A
C117        C118   1.395       .  A
C117        C878   1.409   1_545  A
C117       Br124   1.921       .  S
C118        C881   1.405   1_545  A
C118        H123   1.084       .  S
C119        C120   1.410       .  A
C119        C880   1.405       .  A
C120       Br121   1.923       .  S
C125        C130   1.391       .  A
C125        C634   1.402   1_455  A
C125        H132   1.085       .  S
C126        C127   1.412       .  A
C126        C633   1.402       .  A
C127        C128   1.395       .  A
C127       Br134   1.923       .  S
C128        C129   1.403       .  A
C128        H133   1.085       .  S
C129        C638   1.414       .  A
C130        C637   1.414   1_455  A
C130       Br131   1.925       .  S
C135        C136   1.409       .  A
C135        C140   1.399       .  A
C135        H142   1.084       .  S
C136        C137   1.414       .  A
C137        C138   1.397       .  A
C137       Br144   1.914       .  S
C138        C139   1.400       .  A
C138        H143   1.084       .  S
C139        C140   1.407       .  A
C140       Br141   1.920       .  S
C145        C146   1.402       .  A
C145        C150   1.401       .  A
C145        H152   1.083       .  S
C146        C147   1.406       .  A
C147        C148   1.399       .  A
C147       Br154   1.915       .  S
C148        C149   1.407       .  A
C148        H153   1.082       .  S
C149        C150   1.418       .  A
C150       Br151   1.921       .  S
C155        C156   1.404       .  A
C155        C160   1.395       .  A
C155        H162   1.084       .  S
C156        C157   1.415       .  A
C157        C158   1.402       .  A
C157       Br164   1.921       .  S
C158        C159   1.403       .  A
C158        H163   1.085       .  S
C159        C160   1.411       .  A
C160       Br161   1.923       .  S
C165        C166   1.403       .  A
C165        C170   1.398       .  A
C165        H172   1.083       .  S
C166        C167   1.411       .  A
C167        C168   1.391       .  A
C167       Br174   1.923       .  S
C168        C169   1.402       .  A
C168        H173   1.083       .  S
C169        C170   1.413       .  A
C170       Br171   1.921       .  S
C175        C176   1.404       .  A
C175        C180   1.398       .  A
C175        H182   1.084       .  S
C176        C177   1.410       .  A
C177        C178   1.398       .  A
C177       Br184   1.921       .  S
C178        C179   1.404       .  A
C178        H183   1.084       .  S
C179        C180   1.411       .  A
C180       Br181   1.922       .  S
C185        C186   1.402       .  A
C185        C190   1.393       .  A
C185        H192   1.083       .  S
C186        C187   1.416       .  A
C187        C188   1.400       .  A
C187       Br194   1.922       .  S
C188        C189   1.403       .  A
C188        H193   1.082       .  S
C189        C190   1.415       .  A
C190       Br191   1.921       .  S
C195        C196   1.410       .  A
C195        C200   1.396       .  A
C195        H202   1.083       .  S
C196        C197   1.418       .  A
C197        C198   1.389       .  A
C197       Br204   1.925       .  S
C198        C199   1.401       .  A
C198        H203   1.083       .  S
C199        C200   1.410       .  A
C200       Br201   1.922       .  S
C205        C206   1.404       .  A
C205        C210   1.398       .  A
C205        H212   1.083       .  S
C206        C207   1.413       .  A
C207        C208   1.393       .  A
C207       Br214   1.922       .  S
C208        C209   1.400       .  A
C208        H213   1.083       .  S
C209        C210   1.413       .  A
C210       Br211   1.921       .  S
C215        C216   1.407       .  A
C215        C220   1.394       .  A
C215        H222   1.083       .  S
C216        C217   1.418       .  A
C217        C218   1.398       .  A
C217       Br224   1.921       .  S
C218        C219   1.397       .  A
C218        H223   1.083       .  S
C219        C220   1.405       .  A
C220       Br221   1.921       .  S
C225        C226   1.405       .  A
C225        C230   1.398       .  A
C225        H232   1.083       .  S
C226        C227   1.413       .  A
C227        C228   1.398       .  A
C227       Br234   1.922       .  S
C228        C229   1.407       .  A
C228        H233   1.083       .  S
C229        C230   1.411       .  A
C230       Br231   1.921   1_556  S
C235        C236   1.402       .  A
C235        C240   1.393       .  A
C235        H242   1.084       .  S
C236        C237   1.408       .  A
C237        C238   1.400       .  A
C237       Br244   1.919   1_556  S
C238        C239   1.407       .  A
C238        H243   1.084       .  S
C239        C240   1.412       .  A
C240       Br241   1.923       .  S
C245        C246   1.407       .  A
C245        C250   1.397       .  A
C245        H252   1.081       .  S
C246        C247   1.417       .  A
C247        C248   1.401       .  A
C247       Br254   1.921   1_556  S
C248        C249   1.401       .  A
C248        H253   1.083   1_556  S
C249        C250   1.408       .  A
C250       Br251   1.922       .  S
C255        N256   1.356       .  A
C255        N260   1.359       .  A
C255        C483   1.483       .  S
N256        C257   1.356       .  A
C257        N258   1.358       .  A
C257        C490   1.472       .  S
N258        C259   1.358       .  A
C259        N260   1.358       .  A
C259        C503   1.475       .  S
C261        N262   1.353       .  A
C261        N266   1.358       .  A
C261        C450   1.484       .  S
N262        C263   1.352       .  A
C263        N264   1.355       .  A
C263        C473   1.462       .  S
N264        C265   1.358       .  A
C265        N266   1.356       .  A
C265        C460   1.474       .  S
C267        N268   1.360       .  A
C267        N272   1.353       .  A
C267        C440   1.481       .  S
N268        C269   1.359       .  A
C269        N270   1.357       .  A
C269        C430   1.477       .  S
N270        C271   1.356       .  A
C271        N272   1.353       .  A
C271        C420   1.470       .  S
C273        N274   1.357       .  A
C273        N278   1.360       .  A
C273        C410   1.483       .  S
N274        C275   1.359       .  A
C275        N276   1.361       .  A
C275        C390   1.487       .  S
N276        C277   1.360       .  A
C277        N278   1.358       .  A
C277        C400   1.479       .  S
N279        N280   1.317   1_556  A
N279        N539   1.314   1_565  A
N279       Mn308   2.183       .  S
N280        C287   1.350   1_565  A
N281        N283   1.314       .  A
N281        N282   1.320       .  A
N281       Mn805   2.199       .  S
N282        C288   1.353       .  A
N283        N284   1.319       .  A
N284        C288   1.354       .  A
N285        N533   1.314   1_455  A
N285        N286   1.317   1_556  A
N285       Mn297   2.187       .  S
N286        C541   1.353   1_455  A
C287        N540   1.353       .  A
C287        C380   1.472   1_545  S
C288        C480   1.481       .  S
N289        N295   1.315       .  A
N289        N290   1.319       .  A
N289       Mn319   2.192       .  S
N290        C298   1.352       .  A
N291        N292   1.321       .  A
N291        N293   1.314       .  A
N291       Mn297   2.201       .  S
N292        C299   1.354       .  A
N293        N294   1.319       .  A
N293       Mn319   2.198       .  S
N294        C299   1.354       .  A
N295        N296   1.315       .  A
N295       Mn297   2.185       .  S
N296        C298   1.351       .  A
Mn297       N789   2.198   1_455  S
Mn297      Cl575   2.539   1_455  S
C298        C423   1.472       .  S
C299        C500   1.488       .  S
N300        N301   1.318       .  A
N300        N306   1.315       .  A
N300       Mn308   2.194       .  S
N301        C309   1.352       .  A
N302        N304   1.314       .  A
N302        N303   1.317       .  A
N302       Mn320   2.189       .  S
N303        C310   1.351       .  A
N304        N305   1.321       .  A
N304       Mn308   2.194       .  S
N305        C310   1.353       .  A
N306        N307   1.320       .  A
N306       Mn320   2.205       .  S
N307        C309   1.354       .  A
Mn308      Cl321   2.545   1_565  S
C309        C433   1.477       .  S
C310        C493   1.477       .  S
N311        N312   1.314       .  A
N311        N317   1.314       .  A
N312        C322   1.347       .  A
N313        N314   1.316       .  A
N313        N569   1.314   1_565  A
N313       Mn320   2.181       .  S
N314        C323   1.350       .  A
N315        N567   1.314   1_455  A
N315        N316   1.320       .  A
N315       Mn319   2.200       .  S
N316        C577   1.354       .  A
N317        N318   1.323       .  A
N317       Mn828   2.213   1_455  S
N318        C322   1.358       .  A
Mn319      Cl575   2.540   1_455  S
Mn320       N825   2.213       .  S
Mn320      Cl321   2.542   1_565  S
Cl321      Mn551   2.539       .  S
Cl321      Mn573   2.540       .  S
C322        C443   1.480       .  S
C323        N570   1.354   1_565  A
C323        C370   1.476       .  S
N324        N325   1.319       .  A
N324        N584   1.315   1_565  A
N324       Mn353   2.196       .  S
N325        C332   1.353       .  A
N326        N328   1.313       .  A
N326        N327   1.319       .  A
N326       Mn850   2.184       .  S
N327        C333   1.352       .  A
N328        N329   1.314       .  A
N329        C333   1.351       .  A
N330        N578   1.315   1_455  A
N330        N331   1.317       .  A
N330       Mn342   2.188       .  S
N331        C586   1.352   1_455  A
C332        N585   1.352   1_565  A
C332        C373   1.475       .  S
C333        C453   1.474       .  S
N334        N340   1.314       .  A
N334        N335   1.320       .  A
N334       Mn364   2.197       .  S
N335        C343   1.353       .  A
N336        N337   1.318       .  A
N336        N338   1.312       .  A
N336       Mn342   2.190       .  S
N337        C344   1.352       .  A
N338        N339   1.318       .  A
N338       Mn364   2.188       .  S
N339        C344   1.354       .  A
N340        N341   1.320       .  A
N340       Mn342   2.197       .  S
N341        C343   1.353       .  A
Mn342       N834   2.184   1_455  S
Mn342      Cl620   2.544   1_455  S
C343        C393   1.473       .  S
C344        C470   1.482       .  S
N345        N346   1.320       .  A
N345        N351   1.315       .  A
N345       Mn353   2.201       .  S
N346        C354   1.353       .  A
N347        N349   1.315       .  A
N347        N348   1.318       .  A
N347       Mn365   2.201       .  S
N348        C355   1.354       .  A
N349        N350   1.319       .  A
N349       Mn353   2.185       .  S
N350        C355   1.350       .  A
N351        N352   1.322       .  A
N351       Mn365   2.215       .  S
N352        C354   1.357       .  A
Mn353      Cl366   2.538       .  S
C354        C403   1.490       .  S
C355        C463   1.473       .  S
N356        N357   1.316       .  A
N356        N362   1.316       .  A
N357        C367   1.349       .  A
N358        N359   1.320       .  A
N358        N614   1.314       .  A
N358       Mn365   2.198       .  S
N359        C368   1.355       .  A
N360        N612   1.314   1_455  A
N360        N361   1.314       .  A
N360       Mn364   2.172       .  S
N361        C622   1.347       .  A
N362        N363   1.323       .  A
N362       Mn873   2.215   1_455  S
N363        C367   1.356       .  A
Mn364      Cl620   2.536   1_455  S
Mn365       N870   2.215       .  S
Mn365      Cl366   2.548       .  S
Cl366      Mn596   2.544   1_565  S
Cl366      Mn618   2.536   1_565  S
C367        C413   1.476       .  S
C368        N615   1.347   1_565  A
C368        C383   1.473       .  S
C369        C370   1.406       .  A
C369        C374   1.395       .  A
C369        H376   1.084       .  S
C370        C625   1.410   1_565  A
C371        C624   1.410       .  A
C371        C372   1.395       .  A
C371       Br378   1.921       .  S
C372        C627   1.405       .  A
C372        H377   1.084       .  S
C373        C626   1.405   1_565  A
C373        C374   1.410       .  A
C374       Br375   1.923       .  S
C379        C888   1.402   1_445  A
C379        C384   1.391       .  A
C379        H386   1.085       .  S
C380        C887   1.402   1_565  A
C380        C381   1.412       .  A
C381        C382   1.395       .  A
C381       Br388   1.923       .  S
C382        C383   1.403       .  A
C382        H387   1.085       .  S
C383        C892   1.414   1_565  A
C384        C891   1.414   1_445  A
C384       Br385   1.925       .  S
C389        C390   1.409       .  A
C389        C394   1.399       .  A
C389        H396   1.084       .  S
C390        C391   1.414       .  A
C391        C392   1.397       .  A
C391       Br398   1.914       .  S
C392        C393   1.400       .  A
C392        H397   1.084       .  S
C393        C394   1.407       .  A
C394       Br395   1.920       .  S
C399        C400   1.402       .  A
C399        C404   1.401       .  A
C399        H406   1.083       .  S
C400        C401   1.406       .  A
C401        C402   1.400       .  A
C401       Br408   1.915       .  S
C402        C403   1.407       .  A
C402        H407   1.082       .  S
C403        C404   1.418       .  A
C404       Br405   1.921       .  S
C409        C410   1.404       .  A
C409        C414   1.395       .  A
C409        H416   1.084       .  S
C410        C411   1.415       .  A
C411        C412   1.402       .  A
C411       Br418   1.921       .  S
C412        C413   1.403       .  A
C412        H417   1.085       .  S
C413        C414   1.411       .  A
C414       Br415   1.923       .  S
C419        C420   1.403       .  A
C419        C424   1.398       .  A
C419        H426   1.083       .  S
C420        C421   1.411       .  A
C421        C422   1.391       .  A
C421       Br428   1.923       .  S
C422        C423   1.402       .  A
C422        H427   1.083       .  S
C423        C424   1.413       .  A
C424       Br425   1.921       .  S
C429        C430   1.404       .  A
C429        C434   1.398       .  A
C429        H436   1.084       .  S
C430        C431   1.410       .  A
C431        C432   1.398       .  A
C431       Br438   1.920       .  S
C432        C433   1.404       .  A
C432        H437   1.084       .  S
C433        C434   1.411       .  A
C434       Br435   1.922       .  S
C439        C440   1.402       .  A
C439        C444   1.393       .  A
C439        H446   1.083       .  S
C440        C441   1.416       .  A
C441        C442   1.400       .  A
C441       Br448   1.922       .  S
C442        C443   1.403       .  A
C442        H447   1.082       .  S
C443        C444   1.415       .  A
C444       Br445   1.921       .  S
C449        C450   1.410       .  A
C449        C454   1.396       .  A
C449        H456   1.083       .  S
C450        C451   1.418       .  A
C451        C452   1.389       .  A
C451       Br458   1.925       .  S
C452        C453   1.401       .  A
C452        H457   1.083       .  S
C453        C454   1.410       .  A
C454       Br455   1.922       .  S
C459        C460   1.404       .  A
C459        C464   1.399       .  A
C459        H466   1.083       .  S
C460        C461   1.413       .  A
C461        C462   1.393       .  A
C461       Br468   1.922       .  S
C462        C463   1.400       .  A
C462        H467   1.083       .  S
C463        C464   1.413       .  A
C464       Br465   1.921       .  S
C469        C470   1.407       .  A
C469        C474   1.394       .  A
C469        H476   1.083       .  S
C470        C471   1.418       .  A
C471        C472   1.398       .  A
C471       Br478   1.921       .  S
C472        C473   1.397       .  A
C472        H477   1.083       .  S
C473        C474   1.405       .  A
C474       Br475   1.921       .  S
C479        C480   1.405       .  A
C479        C484   1.398       .  A
C479        H486   1.083       .  S
C480        C481   1.413       .  A
C481        C482   1.398       .  A
C481       Br488   1.921       .  S
C482        C483   1.407       .  A
C482        H487   1.083       .  S
C483        C484   1.411       .  A
C484       Br485   1.921   1_556  S
C489        C490   1.402       .  A
C489        C494   1.393       .  A
C489        H496   1.084       .  S
C490        C491   1.408       .  A
C491        C492   1.400       .  A
C491       Br498   1.919   1_556  S
C492        C493   1.407       .  A
C492        H497   1.084       .  S
C493        C494   1.412       .  A
C494       Br495   1.923       .  S
C499        C500   1.407       .  A
C499        C504   1.397       .  A
C499        H506   1.081       .  S
C500        C501   1.417       .  A
C501        C502   1.401       .  A
C501       Br508   1.921   1_556  S
C502        C503   1.401       .  A
C502        H507   1.083   1_556  S
C503        C504   1.408       .  A
C504       Br505   1.922       .  S
C509        N510   1.356       .  A
C509        N514   1.359       .  A
C509        C737   1.483       .  S
N510        C511   1.356       .  A
C511        N512   1.358       .  A
C511        C744   1.473       .  S
N512        C513   1.358       .  A
C513        N514   1.358       .  A
C513        C757   1.475       .  S
C515        N516   1.353       .  A
C515        N520   1.358       .  A
C515        C704   1.484       .  S
N516        C517   1.352       .  A
C517        N518   1.355       .  A
C517        C727   1.462       .  S
N518        C519   1.358       .  A
C519        N520   1.356       .  A
C519        C714   1.474       .  S
C521        N522   1.360       .  A
C521        N526   1.353       .  A
C521        C694   1.481       .  S
N522        C523   1.359       .  A
C523        N524   1.357       .  A
C523        C684   1.477       .  S
N524        C525   1.356       .  A
C525        N526   1.353       .  A
C525        C674   1.470       .  S
C527        N528   1.357       .  A
C527        N532   1.360       .  A
C527        C664   1.483       .  S
N528        C529   1.359       .  A
C529        N530   1.361       .  A
C529        C644   1.487       .  S
N530        C531   1.360       .  A
C531        N532   1.358       .  A
C531        C654   1.479       .  S
N533        N534   1.317   1_556  A
N533       Mn562   2.183       .  S
N534        C541   1.350       .  A
N535        N537   1.314       .  A
N535        N536   1.320       .  A
N536        C542   1.353       .  A
N537        N538   1.319       .  A
N537       Mn816   2.196   1_545  S
N538        C542   1.354       .  A
N539        N540   1.317   1_556  A
N539       Mn551   2.187       .  S
C541        C634   1.472       .  S
C542        C734   1.481       .  S
N543        N549   1.315       .  A
N543        N544   1.319       .  A
N543       Mn573   2.192       .  S
N544        C552   1.352       .  A
N545        N546   1.321       .  A
N545        N547   1.314       .  A
N545       Mn551   2.201       .  S
N546        C553   1.354       .  A
N547        N548   1.319       .  A
N547       Mn573   2.198       .  S
N548        C553   1.354       .  A
N549        N550   1.315       .  A
N549       Mn551   2.185       .  S
N550        C552   1.351       .  A
C552        C677   1.472       .  S
C553        C754   1.488       .  S
N554        N555   1.318       .  A
N554        N560   1.315       .  A
N554       Mn562   2.194       .  S
N555        C563   1.352       .  A
N556        N558   1.314       .  A
N556        N557   1.317       .  A
N556       Mn574   2.189       .  S
N557        C564   1.351       .  A
N558        N559   1.321       .  A
N558       Mn562   2.194       .  S
N559        C564   1.353       .  A
N560        N561   1.320       .  A
N560       Mn574   2.205       .  S
N561        C563   1.354       .  A
Mn562       N791   2.197       .  S
Mn562      Cl575   2.545       .  S
C563        C687   1.477       .  S
C564        C747   1.476       .  S
N565        N566   1.314       .  A
N565        N571   1.314       .  A
N565       Mn827   2.179       .  S
N566        C576   1.347       .  A
N567        N568   1.316       .  A
N567       Mn574   2.181       .  S
N568        C577   1.350   1_655  A
N569        N570   1.320       .  A
N569       Mn573   2.200       .  S
N571        N572   1.323       .  A
N572        C576   1.358       .  A
Mn573       N819   2.179   1_545  S
Mn574      Cl575   2.542       .  S
C576        C697   1.480       .  S
C577        C624   1.476       .  S
N578        N579   1.319       .  A
N578       Mn607   2.196       .  S
N579        C586   1.353       .  A
N580        N582   1.313       .  A
N580        N581   1.319       .  A
N581        C587   1.352       .  A
N582        N583   1.314       .  A
N582       Mn861   2.179   1_545  S
N583        C587   1.351       .  A
N584        N585   1.317       .  A
N584       Mn596   2.188       .  S
C586        C627   1.475   1_655  S
C587        C707   1.474       .  S
N588        N594   1.314       .  A
N588        N589   1.320       .  A
N588       Mn618   2.197       .  S
N589        C597   1.353       .  A
N590        N591   1.318       .  A
N590        N592   1.312       .  A
N590       Mn596   2.190       .  S
N591        C598   1.352       .  A
N592        N593   1.318       .  A
N592       Mn618   2.188       .  S
N593        C598   1.354       .  A
N594        N595   1.320       .  A
N594       Mn596   2.197       .  S
N595        C597   1.353       .  A
C597        C647   1.473       .  S
C598        C724   1.482       .  S
N599        N600   1.320       .  A
N599        N605   1.315       .  A
N599       Mn607   2.201       .  S
N600        C608   1.353       .  A
N601        N603   1.315       .  A
N601        N602   1.318       .  A
N601       Mn619   2.202       .  S
N602        C609   1.354       .  A
N603        N604   1.319       .  A
N603       Mn607   2.185       .  S
N604        C609   1.350       .  A
N605        N606   1.322       .  A
N605       Mn619   2.215       .  S
N606        C608   1.357       .  A
Mn607       N836   2.179       .  S
Mn607      Cl620   2.538       .  S
C608        C657   1.490       .  S
C609        C717   1.473       .  S
N610        N611   1.316       .  A
N610        N616   1.316       .  A
N610       Mn872   2.186       .  S
N611        C621   1.349       .  A
N612        N613   1.320       .  A
N612       Mn619   2.198       .  S
N613        C622   1.355   1_655  A
N614        N615   1.314   1_565  A
N614       Mn618   2.172   1_565  S
N616        N617   1.323       .  A
N617        C621   1.356       .  A
Mn618       N864   2.185   1_545  S
Mn619      Cl620   2.548       .  S
C621        C667   1.476       .  S
C622        C637   1.473   1_455  S
C623        C624   1.406   1_655  A
C623        C628   1.395       .  A
C623        H630   1.084       .  S
C625        C626   1.395       .  A
C625       Br632   1.921       .  S
C626        H631   1.084       .  S
C627        C628   1.410   1_455  A
C628       Br629   1.923       .  S
C633        C638   1.391       .  A
C633        H640   1.085       .  S
C634        C635   1.412       .  A
C635        C636   1.395       .  A
C635       Br642   1.923       .  S
C636        C637   1.403       .  A
C636        H641   1.085       .  S
C638       Br639   1.925       .  S
C643        C644   1.409       .  A
C643        C648   1.399       .  A
C643        H650   1.084       .  S
C644        C645   1.414       .  A
C645        C646   1.397       .  A
C645       Br652   1.914       .  S
C646        C647   1.400       .  A
C646        H651   1.084       .  S
C647        C648   1.407       .  A
C648       Br649   1.920       .  S
C653        C654   1.402       .  A
C653        C658   1.401       .  A
C653        H660   1.083       .  S
C654        C655   1.406       .  A
C655        C656   1.400       .  A
C655       Br662   1.915       .  S
C656        C657   1.407       .  A
C656        H661   1.082       .  S
C657        C658   1.418       .  A
C658       Br659   1.921       .  S
C663        C664   1.404       .  A
C663        C668   1.395       .  A
C663        H670   1.084       .  S
C664        C665   1.415       .  A
C665        C666   1.402       .  A
C665       Br672   1.921       .  S
C666        C667   1.403       .  A
C666        H671   1.085       .  S
C667        C668   1.411       .  A
C668       Br669   1.923       .  S
C673        C674   1.403       .  A
C673        C678   1.398       .  A
C673        H680   1.083       .  S
C674        C675   1.411       .  A
C675        C676   1.391       .  A
C675       Br682   1.923       .  S
C676        C677   1.402       .  A
C676        H681   1.083       .  S
C677        C678   1.413       .  A
C678       Br679   1.921       .  S
C683        C684   1.404       .  A
C683        C688   1.398       .  A
C683        H690   1.084       .  S
C684        C685   1.410       .  A
C685        C686   1.398       .  A
C685       Br692   1.920       .  S
C686        C687   1.404       .  A
C686        H691   1.084       .  S
C687        C688   1.411       .  A
C688       Br689   1.922       .  S
C693        C694   1.402       .  A
C693        C698   1.393       .  A
C693        H700   1.083       .  S
C694        C695   1.416       .  A
C695        C696   1.400       .  A
C695       Br702   1.922       .  S
C696        C697   1.403       .  A
C696        H701   1.082       .  S
C697        C698   1.415       .  A
C698       Br699   1.921       .  S
C703        C704   1.410       .  A
C703        C708   1.396       .  A
C703        H710   1.083       .  S
C704        C705   1.418       .  A
C705        C706   1.389       .  A
C705       Br712   1.925       .  S
C706        C707   1.401       .  A
C706        H711   1.083       .  S
C707        C708   1.410       .  A
C708       Br709   1.922       .  S
C713        C714   1.404       .  A
C713        C718   1.399       .  A
C713        H720   1.083       .  S
C714        C715   1.413       .  A
C715        C716   1.393       .  A
C715       Br722   1.922       .  S
C716        C717   1.400       .  A
C716        H721   1.083       .  S
C717        C718   1.413       .  A
C718       Br719   1.921       .  S
C723        C724   1.407       .  A
C723        C728   1.394       .  A
C723        H730   1.083       .  S
C724        C725   1.418       .  A
C725        C726   1.398       .  A
C725       Br732   1.921       .  S
C726        C727   1.397       .  A
C726        H731   1.083       .  S
C727        C728   1.405       .  A
C728       Br729   1.921       .  S
C733        C734   1.405       .  A
C733        C738   1.398       .  A
C733        H740   1.083       .  S
C734        C735   1.413       .  A
C735        C736   1.398       .  A
C735       Br742   1.921       .  S
C736        C737   1.407       .  A
C736        H741   1.083       .  S
C737        C738   1.411       .  A
C738       Br739   1.921   1_556  S
C743        C744   1.402       .  A
C743        C748   1.393       .  A
C743        H750   1.084       .  S
C744        C745   1.408       .  A
C745        C746   1.400       .  A
C745       Br752   1.919   1_556  S
C746        C747   1.407       .  A
C746        H751   1.084       .  S
C747        C748   1.412       .  A
C748       Br749   1.923       .  S
C753        C754   1.407       .  A
C753        C758   1.397       .  A
C753        H760   1.081       .  S
C754        C755   1.417       .  A
C755        C756   1.401       .  A
C755       Br762   1.921   1_556  S
C756        C757   1.401       .  A
C756        H761   1.083   1_556  S
C757        C758   1.408       .  A
C758       Br759   1.922       .  S
C763        N764   1.356       .  A
C763        N768   1.359       .  A
C763        C991   1.483       .  S
N764        C765   1.356       .  A
C765        N766   1.358       .  A
C765        C998   1.473       .  S
N766        C767   1.358       .  A
C767        N768   1.358       .  A
C767       C1011   1.475       .  S
C769        N770   1.353       .  A
C769        N774   1.358       .  A
C769        C958   1.484       .  S
N770        C771   1.352       .  A
C771        N772   1.355       .  A
C771        C981   1.462       .  S
N772        C773   1.358       .  A
C773        N774   1.356       .  A
C773        C968   1.474       .  S
C775        N776   1.360       .  A
C775        N780   1.353       .  A
C775        C948   1.481       .  S
N776        C777   1.359       .  A
C777        N778   1.357       .  A
C777        C938   1.477       .  S
N778        C779   1.356       .  A
C779        N780   1.353       .  A
C779        C928   1.471       .  S
C781        N782   1.357       .  A
C781        N786   1.360       .  A
C781        C918   1.483       .  S
N782        C783   1.359       .  A
C783        N784   1.361       .  A
C783        C898   1.486       .  S
N784        C785   1.360       .  A
C785        N786   1.358       .  A
C785        C908   1.479       .  S
N787        N788   1.317   1_556  A
N787       Mn816   2.182       .  S
N788        C795   1.350   1_565  A
N789        N791   1.314       .  A
N789        N790   1.320       .  A
N790        C796   1.352       .  A
N791        N792   1.319       .  A
N792        C796   1.354       .  A
N793        N794   1.317   1_556  A
N793       Mn805   2.188       .  S
C795        C888   1.472   1_545  S
C796        C988   1.481       .  S
N797        N803   1.315       .  A
N797        N798   1.319       .  A
N797       Mn827   2.192       .  S
N798        C806   1.352       .  A
N799        N800   1.321       .  A
N799        N801   1.314       .  A
N799       Mn805   2.202       .  S
N800        C807   1.354       .  A
N801        N802   1.319       .  A
N801       Mn827   2.198       .  S
N802        C807   1.354       .  A
N803        N804   1.315       .  A
N803       Mn805   2.185       .  S
N804        C806   1.351       .  A
C806        C931   1.472       .  S
C807       C1008   1.488       .  S
N808        N809   1.318       .  A
N808        N814   1.315       .  A
N808       Mn816   2.194       .  S
N809        C817   1.352       .  A
N810        N812   1.314       .  A
N810        N811   1.317       .  A
N810       Mn828   2.189       .  S
N811        C818   1.352       .  A
N812        N813   1.321       .  A
N812       Mn816   2.194       .  S
N813        C818   1.353       .  A
N814        N815   1.320       .  A
N814       Mn828   2.205       .  S
N815        C817   1.354       .  A
Mn816      Cl829   2.544   1_565  S
C817        C941   1.477       .  S
C818       C1001   1.476       .  S
N819        N820   1.314       .  A
N819        N825   1.315       .  A
N820        C830   1.347       .  A
N821        N822   1.316       .  A
N821       Mn828   2.181       .  S
N822        C831   1.350   1_655  A
N823        N824   1.320       .  A
N823       Mn827   2.200       .  S
N825        N826   1.323       .  A
N826        C830   1.358       .  A
Mn828      Cl829   2.542   1_565  S
C830        C951   1.480       .  S
C831        C878   1.475       .  S
N832        N833   1.319       .  A
N832       Mn861   2.196       .  S
N833        C840   1.353       .  A
N834        N836   1.313       .  A
N834        N835   1.319       .  A
N835        C841   1.352       .  A
N836        N837   1.314       .  A
N837        C841   1.351       .  A
N838        N839   1.317       .  A
N838       Mn850   2.188       .  S
C840        C881   1.475   1_655  S
C841        C961   1.474       .  S
N842        N848   1.314       .  A
N842        N843   1.319       .  A
N842       Mn872   2.197       .  S
N843        C851   1.353       .  A
N844        N845   1.318       .  A
N844        N846   1.312       .  A
N844       Mn850   2.190       .  S
N845        C852   1.352       .  A
N846        N847   1.318       .  A
N846       Mn872   2.187       .  S
N847        C852   1.354       .  A
N848        N849   1.320       .  A
N848       Mn850   2.197       .  S
N849        C851   1.353       .  A
C851        C901   1.473       .  S
C852        C978   1.482       .  S
N853        N854   1.320       .  A
N853        N859   1.315       .  A
N853       Mn861   2.201       .  S
N854        C862   1.353       .  A
N855        N857   1.315       .  A
N855        N856   1.318       .  A
N855       Mn873   2.201       .  S
N856        C863   1.353       .  A
N857        N858   1.319       .  A
N857       Mn861   2.184       .  S
N858        C863   1.350       .  A
N859        N860   1.322       .  A
N859       Mn873   2.215       .  S
N860        C862   1.357       .  A
Mn861      Cl874   2.538       .  S
C862        C911   1.490       .  S
C863        C971   1.473       .  S
N864        N865   1.316       .  A
N864        N870   1.316       .  A
N865        C875   1.349       .  A
N866        N867   1.320       .  A
N866       Mn873   2.198       .  S
N867        C876   1.355       .  A
N868        N869   1.314       .  A
N868       Mn872   2.172       .  S
N870        N871   1.323       .  A
N871        C875   1.356       .  A
Mn873      Cl874   2.548       .  S
C875        C921   1.476       .  S
C876        C891   1.473       .  S
C877        C878   1.406   1_655  A
C877        C882   1.396       .  A
C877        H884   1.084       .  S
C879        C880   1.395       .  A
C879       Br886   1.921       .  S
C880        H885   1.084       .  S
C881        C882   1.410   1_455  A
C882       Br883   1.923       .  S
C887        C892   1.391       .  A
C887        H894   1.085       .  S
C888        C889   1.412       .  A
C889        C890   1.395       .  A
C889       Br896   1.923       .  S
C890        C891   1.403       .  A
C890        H895   1.085       .  S
C892       Br893   1.925       .  S
C897        C898   1.409       .  A
C897        C902   1.399       .  A
C897        H904   1.084       .  S
C898        C899   1.414       .  A
C899        C900   1.397       .  A
C899       Br906   1.914       .  S
C900        C901   1.400       .  A
C900        H905   1.084       .  S
C901        C902   1.407       .  A
C902       Br903   1.920       .  S
C907        C908   1.402       .  A
C907        C912   1.401       .  A
C907        H914   1.083       .  S
C908        C909   1.406       .  A
C909        C910   1.399       .  A
C909       Br916   1.915       .  S
C910        C911   1.407       .  A
C910        H915   1.082       .  S
C911        C912   1.418       .  A
C912       Br913   1.921       .  S
C917        C918   1.404       .  A
C917        C922   1.395       .  A
C917        H924   1.084       .  S
C918        C919   1.415       .  A
C919        C920   1.402       .  A
C919       Br926   1.921       .  S
C920        C921   1.403       .  A
C920        H925   1.085       .  S
C921        C922   1.411       .  A
C922       Br923   1.923       .  S
C927        C928   1.403       .  A
C927        C932   1.398       .  A
C927        H934   1.083       .  S
C928        C929   1.411       .  A
C929        C930   1.391       .  A
C929       Br936   1.923       .  S
C930        C931   1.402       .  A
C930        H935   1.083       .  S
C931        C932   1.413       .  A
C932       Br933   1.921       .  S
C937        C938   1.404       .  A
C937        C942   1.398       .  A
C937        H944   1.084       .  S
C938        C939   1.410       .  A
C939        C940   1.398       .  A
C939       Br946   1.921       .  S
C940        C941   1.404       .  A
C940        H945   1.084       .  S
C941        C942   1.411       .  A
C942       Br943   1.922       .  S
C947        C948   1.402       .  A
C947        C952   1.393       .  A
C947        H954   1.083       .  S
C948        C949   1.416       .  A
C949        C950   1.400       .  A
C949       Br956   1.922       .  S
C950        C951   1.403       .  A
C950        H955   1.082       .  S
C951        C952   1.415       .  A
C952       Br953   1.921       .  S
C957        C958   1.410       .  A
C957        C962   1.396       .  A
C957        H964   1.083       .  S
C958        C959   1.418       .  A
C959        C960   1.389       .  A
C959       Br966   1.925       .  S
C960        C961   1.401       .  A
C960        H965   1.083       .  S
C961        C962   1.410       .  A
C962       Br963   1.922       .  S
C967        C968   1.404       .  A
C967        C972   1.398       .  A
C967        H974   1.083       .  S
C968        C969   1.413       .  A
C969        C970   1.393       .  A
C969       Br976   1.922       .  S
C970        C971   1.400       .  A
C970        H975   1.083       .  S
C971        C972   1.413       .  A
C972       Br973   1.921       .  S
C977        C978   1.407       .  A
C977        C982   1.394       .  A
C977        H984   1.083       .  S
C978        C979   1.418       .  A
C979        C980   1.398       .  A
C979       Br986   1.921       .  S
C980        C981   1.397       .  A
C980        H985   1.083       .  S
C981        C982   1.405       .  A
C982       Br983   1.921       .  S
C987        C988   1.405       .  A
C987        C992   1.398       .  A
C987        H994   1.083       .  S
C988        C989   1.413       .  A
C989        C990   1.398       .  A
C989       Br996   1.922       .  S
C990        C991   1.407       .  A
C990        H995   1.083       .  S
C991        C992   1.411       .  A
C992       Br993   1.921   1_556  S
C997        C998   1.402       .  A
C997       C1002   1.393       .  A
C997       H1004   1.084       .  S
C998        C999   1.408       .  A
C999       C1000   1.400       .  A
C999      Br1006   1.919   1_556  S
C1000      C1001   1.407       .  A
C1000      H1005   1.084       .  S
C1001      C1002   1.412       .  A
C1002     Br1003   1.923       .  S
C1007      C1008   1.407       .  A
C1007      C1012   1.397       .  A
C1007      H1014   1.081       .  S
C1008      C1009   1.417       .  A
C1009      C1010   1.401       .  A
C1009     Br1016   1.921   1_556  S
C1010      C1011   1.401       .  A
C1010      H1015   1.083   1_556  S
C1011      C1012   1.408       .  A
C1012     Br1013   1.922       .  S
