geometry optimzed in LAMMPS
_audit_creation_date              2020-12-01 
_audit_creation_method            'lammps2cif' 
_symmetry_space_group_name_H-M    'P1' 
_symmetry_Int_Tables_number       1 
_symmetry_cell_setting            triclinic 
loop_ 
_symmetry_equiv_pos_as_xyz 
  x,y,z 
_cell_length_a                    32.94118988 
_cell_length_b                    28.12061326423542 
_cell_length_c                    27.383998340702362 
_cell_angle_alpha                 91.28637477578428 
_cell_angle_beta                  87.17923856546763 
_cell_angle_gamma                 90.13166973068172 
loop_ 
_atom_site_label 
_atom_site_type_symbol 
_atom_site_fract_x 
_atom_site_fract_y 
_atom_site_fract_z 
_atom_site_charge 
Zn1        Zn  0.49043764  0.43248030  0.95600293     1.49700
Zn2        Zn  0.45043161  0.50792992  0.03634407     1.49400
Zn3        Zn  0.04570597  0.99905597  0.04434613     1.49100
Zn4        Zn  0.50272992  0.05709774  0.95200753     1.49500
O5          O  0.99522803  0.99764185  0.01023976    -1.82000
O6          O  0.43494530  0.40390597  0.97707182    -0.72600
O7          O  0.46753858  0.51602713  0.10607722    -0.72400
O8          O  0.07986480  0.43898308  0.03247182    -0.71900
O9          O  0.41078123  0.45463134  0.03510182    -0.72600
O10         O  0.03942082  0.39362473  0.98795970    -0.72200
O11         O  0.03359098  0.50320376  0.12193215    -0.72800
O12         O  0.04328318  0.09368738  0.97188801    -0.72200
O13         O  0.41540005  0.05174094  0.01994324    -0.73000
O14         O  0.07927343  0.05497765  0.02477933    -0.72300
O15         O  0.45121808  0.09339588  0.96472923    -0.72800
O16         O  0.50930602  0.04809839  0.87929916    -0.72700
O17         O  0.49225228  0.43947713  0.88145541    -0.72500
C18         C  0.40729505  0.41714217  0.00897352     0.79300
C19         C  0.00171629  0.51679095  0.14670979     0.79800
C20         C  0.07295194  0.40060292  0.00862490     0.78700
C21         C  0.07458612  0.08991042  0.99694440     0.79100
C22         C  0.41950403  0.08740440  0.99219710     0.80200
C23         C  0.50729148  0.01206429  0.85072146     0.79300
N24         N  0.18508656  0.24525057  0.01014108    -0.34500
N25         N  0.24656613  0.17094958  0.01274040    -0.55000
N26         N  0.30851880  0.24214877  0.00332351    -0.34500
N27         N  0.24776132  0.31709403  0.00614127    -0.55000
C28         C  0.16349320  0.20701156  0.02553526     0.29100
C29         C  0.16419362  0.28439110  0.02636985     0.29100
C30         C  0.33015550  0.20501787  0.01878441     0.29100
C31         C  0.33119192  0.28152574  0.01002951     0.29100
C32         C  0.21372175  0.14386434  0.00441167     0.37700
C33         C  0.27922093  0.14233583  0.00518501     0.37700
C34         C  0.21496890  0.34511235  0.00120614     0.37700
C35         C  0.28076234  0.34271777  0.99146839     0.37700
C36         C  0.12891444  0.22180936  0.05242704    -0.19700
C37         C  0.12952433  0.27068247  0.05333676    -0.19700
C38         C  0.36645077  0.22135179  0.03667820    -0.19700
C39         C  0.36741697  0.26960784  0.03031519    -0.19700
C40         C  0.22551936  0.09781525  0.99122389    -0.20800
C41         C  0.26716905  0.09680778  0.99195305    -0.20800
C42         C  0.22726958  0.38910249  0.98388405    -0.20800
C43         C  0.26902766  0.38748444  0.97750923    -0.20800
C44         C  0.17339879  0.15916212  0.01384142    -0.16100
C45         C  0.17453242  0.33187557  0.01475627    -0.16100
C46         C  0.32129869  0.32721722  0.99466102    -0.16100
C47         C  0.31940253  0.15661145  0.01288084    -0.16100
H48         H  0.10578272  0.19967603  0.06986221     0.16800
H49         H  0.10687844  0.29344657  0.07172320     0.17900
H50         H  0.39026516  0.20062396  0.05176213     0.16800
H51         H  0.39204792  0.29318734  0.03948042     0.16800
H52         H  0.20617194  0.06782136  0.98300878     0.15000
H53         H  0.28628323  0.06607258  0.98399722     0.15000
H54         H  0.20825642  0.41923931  0.97671546     0.15000
H55         H  0.28854541  0.41625075  0.96511106     0.15000
H56         H  0.21007269  0.24437208  0.98525429     0.28300
H57         H  0.28252428  0.24032802  0.98322037     0.28300
C58         C  0.50171453  0.99398297  0.71074640     0.05300
C59         C  0.50767657  0.46079533  0.68769606    -0.10900
C60         C  0.50851591  0.46131999  0.63619475     0.02800
C61         C  0.49875372  0.00499720  0.60931537    -0.09400
C62         C  0.49302829  0.04480548  0.64076918     0.05300
C63         C  0.49444543  0.03921722  0.69140924    -0.08800
H64         H  0.51304844  0.42765390  0.70554553     0.10900
H65         H  0.49730390  0.00916882  0.57020513     0.08400
H66         H  0.48856761  0.06987510  0.71524117     0.08200
C67         C  0.02951301  0.50704120  0.28111712     0.05300
C68         C  0.03331121  0.46570744  0.30856290    -0.10900
C69         C  0.03456708  0.46872304  0.35976603     0.02800
C70         C  0.03444590  0.51363405  0.38285426    -0.09400
C71         C  0.00959285  0.05122898  0.35560574     0.05300
C72         C  0.00127171  0.04845418  0.30591270    -0.08800
H73         H  0.03511297  0.43134088  0.28991792     0.10900
H74         H  0.03606311  0.51616917  0.42230989     0.08400
H75         H  0.00525875  0.07953919  0.28348406     0.08200
N76         N  0.50773764  0.32086730  0.48656282    -0.34500
N77         N  0.50123786  0.24890730  0.56141010    -0.55000
N78         N  0.50778634  0.17661101  0.48397037    -0.34500
N79         N  0.50980407  0.24818210  0.40936960    -0.55000
C80         C  0.49393648  0.34646429  0.52646673     0.29100
C81         C  0.49914362  0.34605004  0.44673942     0.29100
C82         C  0.49689360  0.15000300  0.52318913     0.29100
C83         C  0.50079330  0.15005686  0.44331553     0.29100
C84         C  0.50695286  0.28792559  0.59020345     0.37700
C85         C  0.50881633  0.21049243  0.58853082     0.37700
C86         C  0.51823234  0.28650001  0.38185018     0.37700
C87         C  0.51826468  0.20970709  0.38032802     0.37700
C88         C  0.47529577  0.38758102  0.51157500    -0.19700
C89         C  0.47901835  0.38756107  0.46136073    -0.19700
C90         C  0.48250284  0.10626694  0.50691187    -0.19700
C91         C  0.48441427  0.10662051  0.45681486    -0.19700
C92         C  0.51751588  0.27421783  0.63619986    -0.20800
C93         C  0.51873331  0.22517224  0.63512182    -0.20800
C94         C  0.53182131  0.27239210  0.33505516    -0.20800
C95         C  0.53178636  0.22356753  0.33407532    -0.20800
C96         C  0.50084100  0.33541821  0.57577505    -0.16100
C97         C  0.51116949  0.33380544  0.39769843    -0.16100
C98         C  0.51184330  0.16239043  0.39447732    -0.16100
C99         C  0.50397950  0.16254486  0.57258898    -0.16100
H100        H  0.46089770  0.41517586  0.53447799     0.16800
H101        H  0.46817054  0.41503809  0.43822497     0.16800
H102        H  0.47187323  0.07649800  0.52808278     0.16800
H103        H  0.47545212  0.07756598  0.43308033     0.16800
H104        H  0.52363621  0.29707062  0.66730760     0.15000
H105        H  0.52558772  0.20290082  0.66536212     0.15000
H106        H  0.54044290  0.29484826  0.30466787     0.15000
H107        H  0.54045917  0.20092679  0.30283133     0.15000
H108        H  0.52646984  0.29109348  0.48666901     0.28300
H109        H  0.52424104  0.20820070  0.48491502     0.28300
C110        C  0.53697155  0.41083884  0.36832612    -0.14300
C111        C  0.51447553  0.37176924  0.36065704    -0.29500
H112        H  0.04801473  0.43066318  0.42667516     0.14700
H113        H  0.49860333  0.36707264  0.32706764     0.15300
C114        C  0.53666725  0.08459856  0.36247321    -0.14300
C115        C  0.51486522  0.12403977  0.35595297    -0.29500
H116        H  0.04015752  0.09328174  0.41162102     0.14700
H117        H  0.49755565  0.12754317  0.32348102     0.15300
C118        C  0.48242885  0.09118978  0.62006016    -0.14300
C119        C  0.51110213  0.12337088  0.60733307    -0.29500
H120        H  0.45164262  0.09571709  0.60846556     0.14700
H121        H  0.02810312  0.12924878  0.64171841     0.15300
C122        C  0.51602026  0.41797645  0.60488582    -0.14300
C123        C  0.49953092  0.37482737  0.61394780    -0.29500
H124        H  0.02707000  0.43530333  0.59106186     0.14700
H125        H  0.48354363  0.36872004  0.64887672     0.15300
C126        C  0.38714522  0.12314492  0.99072680    -0.14300
C127        C  0.35113989  0.11928612  0.01548858    -0.29500
H128        H  0.39297065  0.15364910  0.96769590     0.14700
H129        H  0.34403821  0.08752158  0.03612436     0.15300
C130        C  0.14257035  0.36972257  0.01955380    -0.14300
C131        C  0.10462053  0.36324028  0.00397088    -0.29500
H132        H  0.15100755  0.40418845  0.03467762     0.14700
H133        H  0.09681988  0.32981034  0.98608110     0.15300
C134        C  0.14106096  0.12252040  0.01666838    -0.14300
C135        C  0.10606124  0.12707516  0.99401252    -0.29500
H136        H  0.14719894  0.09012558  0.03590352     0.14700
H137        H  0.10068521  0.15847750  0.97283107     0.15300
C138        C  0.36979652  0.38917658  0.01694149    -0.14300
C139        C  0.35570326  0.35959389  0.98282032    -0.29500
H140        H  0.35281161  0.39345998  0.05182108     0.14700
H141        H  0.37222268  0.35482011  0.94774575     0.15300
C142        C  0.02991536  0.50235705  0.22703233    -0.14300
C143        C  0.00293247  0.52461672  0.20026777    -0.29500
H144        H  0.05080160  0.47679266  0.20922685     0.14700
H145        H  0.46895924  0.96150992  0.19337968     0.15300
C146        C  0.50236672  0.98582729  0.76424953    -0.14300
C147        C  0.50923759  0.02036158  0.79758288    -0.29500
H148        H  0.99119360  0.05282497  0.80760266     0.14700
H149        H  0.49444481  0.43276592  0.78536591     0.15300
Zn150      Zn  0.50087912  0.94470344  0.93621405     1.49700
Zn151      Zn  0.45029992  0.99358837  0.02789181     1.49400
Zn152      Zn  0.04657856  0.49788065  0.04848870     1.49100
Zn153      Zn  0.49781661  0.54497411  0.94065688     1.49500
O154        O  0.99722854  0.49725829  0.01147104    -1.82000
O155        O  0.45034161  0.90371453  0.94450588    -0.72600
O156        O  0.46240810  0.98548543  0.09963569    -0.72400
O157        O  0.07863944  0.94036116  0.02844409    -0.71900
O158        O  0.41603014  0.93849818  0.00750102    -0.72600
O159        O  0.03879604  0.89514759  0.98317468    -0.72200
O160        O  0.03620103  0.00572385  0.11752061    -0.72800
O161        O  0.04785215  0.59071792  0.97365192    -0.72200
O162        O  0.41834461  0.56465213  0.01766755    -0.73000
O163        O  0.08150094  0.55463044  0.03069044    -0.72300
O164        O  0.44888091  0.58789276  0.94810051    -0.72800
O165        O  0.49949328  0.51736004  0.87226847    -0.72700
O166        O  0.50302188  0.97015134  0.86710836    -0.72500
C167        C  0.41935258  0.90628041  0.97417898     0.79300
C168        C  0.00441188  0.00898399  0.14567479     0.79800
C169        C  0.07196526  0.90205955  0.00443546     0.78700
C170        C  0.07785343  0.58842221  0.00098136     0.79100
C171        C  0.42035215  0.59164565  0.98094380     0.80200
C172        C  0.49645215  0.47549291  0.85410075     0.79300
N173        N  0.18507555  0.74805388  0.00955857    -0.34500
N174        N  0.24837789  0.67648984  0.00544855    -0.55000
N175        N  0.30984014  0.75002622  0.99435660    -0.34500
N176        N  0.24648279  0.82202493  0.00476868    -0.55000
C177        C  0.16438762  0.70933482  0.02550262     0.29100
C178        C  0.16327876  0.78666346  0.02512897     0.29100
C179        C  0.33244373  0.71220718  0.00610778     0.29100
C180        C  0.33145451  0.78948515  0.00520048     0.29100
C181        C  0.21562675  0.64799342  0.00114033     0.37700
C182        C  0.28124828  0.64912387  0.99389719     0.37700
C183        C  0.21293131  0.84890449  0.00027576     0.37700
C184        C  0.27869839  0.84997767  0.99257481     0.37700
C185        C  0.12931866  0.72346205  0.05189876    -0.19700
C186        C  0.12868131  0.77231388  0.05181151    -0.19700
C187        C  0.36860587  0.72782968  0.02482112    -0.19700
C188        C  0.36796695  0.77658986  0.02429925    -0.19700
C189        C  0.22769239  0.60249768  0.98637095    -0.20800
C190        C  0.26936432  0.60319803  0.98187597    -0.20800
C191        C  0.22390593  0.89403667  0.98499164    -0.20800
C192        C  0.26560386  0.89473644  0.98022181    -0.20800
C193        C  0.17540612  0.66161499  0.01453269    -0.16100
C194        C  0.17289478  0.83424763  0.01351138    -0.16100
C195        C  0.31969895  0.83670620  0.99642493    -0.16100
C196        C  0.32172536  0.66398167  0.99888190    -0.16100
H197        H  0.10655650  0.70093802  0.06948224     0.16800
H198        H  0.10534457  0.79465086  0.06945099     0.17900
H199        H  0.39283732  0.70644322  0.03805314     0.16800
H200        H  0.39161600  0.79982845  0.03708428     0.16800
H201        H  0.20857033  0.57176967  0.98041486     0.15000
H202        H  0.28871229  0.57313962  0.97180107     0.15000
H203        H  0.20405576  0.92362063  0.97855983     0.15000
H204        H  0.28413809  0.92493312  0.96948245     0.15000
H205        H  0.21009805  0.74794462  0.98477057     0.28300
H206        H  0.28313717  0.74891265  0.97551952     0.28300
C207        C  0.50153163  0.50348388  0.71542685     0.05300
C208        C  0.50663629  0.95445893  0.67862774    -0.10900
C209        C  0.50515141  0.95957206  0.62784224     0.02800
C210        C  0.50281791  0.50460879  0.61274720    -0.09400
C211        C  0.49614250  0.54706249  0.63966716     0.05300
C212        C  0.49592317  0.54634947  0.69078005    -0.08800
H213        H  0.51233912  0.91981332  0.69335520     0.10900
H214        H  0.50282338  0.50510717  0.57316539     0.08400
H215        H  0.49054209  0.57924761  0.71145904     0.08200
C216        C  0.98776699  0.00539132  0.28514759     0.05300
C217        C  0.98166488  0.96545295  0.31467853    -0.10900
C218        C  0.99106852  0.96761542  0.36434279     0.02800
C219        C  0.00528973  0.01061365  0.38399603    -0.09400
C220        C  0.03003227  0.55522946  0.35635457     0.05300
C221        C  0.02692227  0.55185852  0.30532515    -0.08800
H222        H  0.97136485  0.93264218  0.29805544     0.10900
H223        H  0.01211408  0.01292789  0.42234006     0.08400
H224        H  0.02426708  0.58385871  0.28442847     0.08200
N225        N  0.50488112  0.81881231  0.47598844    -0.34500
N226        N  0.50270158  0.74765534  0.55207181    -0.55000
N227        N  0.50933077  0.67514613  0.47610606    -0.34500
N228        N  0.50802934  0.74585173  0.39995545    -0.55000
C229        C  0.49057613  0.84370153  0.51607485     0.29100
C230        C  0.49317260  0.84232831  0.43639980     0.29100
C231        C  0.50009865  0.64826661  0.51570994     0.29100
C232        C  0.50308212  0.64789923  0.43577677     0.29100
C233        C  0.50857005  0.78738826  0.57965791     0.37700
C234        C  0.51183948  0.71007293  0.57960786     0.37700
C235        C  0.51480075  0.78414361  0.37182411     0.37700
C236        C  0.51849511  0.70746991  0.37178643     0.37700
C237        C  0.46841372  0.88245619  0.50170278    -0.19700
C238        C  0.47035957  0.88179706  0.45143607    -0.19700
C239        C  0.48752932  0.60354629  0.49995835    -0.19700
C240        C  0.48878965  0.60363367  0.44982907    -0.19700
C241        C  0.52108512  0.77498291  0.62528426    -0.20800
C242        C  0.52304563  0.72600277  0.62528360    -0.20800
C243        C  0.52943780  0.77014692  0.32544033    -0.20800
C244        C  0.53177466  0.72132646  0.32540439    -0.20800
C245        C  0.49994605  0.83416590  0.56490155    -0.16100
C246        C  0.50541212  0.83103628  0.38721002    -0.16100
C247        C  0.51385437  0.66016755  0.38681138    -0.16100
C248        C  0.50726962  0.66175011  0.56489211    -0.16100
H249        H  0.45283066  0.90890170  0.52497287     0.16800
H250        H  0.45680575  0.90765300  0.42851390     0.16800
H251        H  0.47909477  0.57310502  0.52145945     0.16800
H252        H  0.48120688  0.57373851  0.42640271     0.16800
H253        H  0.52778318  0.79860501  0.65558028     0.15000
H254        H  0.53127602  0.70462220  0.65563487     0.15000
H255        H  0.53719298  0.79261332  0.29478099     0.15000
H256        H  0.54171359  0.69864984  0.29467881     0.15000
H257        H  0.52584909  0.79109740  0.47568806     0.28300
H258        H  0.52455515  0.70757825  0.47632157     0.28300
C259        C  0.52648846  0.91073668  0.36119245    -0.14300
C260        C  0.50752860  0.86970527  0.35063878    -0.29500
H261        H  0.00204272  0.93080600  0.43249713     0.14700
H262        H  0.49353048  0.86430971  0.31588900     0.15300
C263        C  0.54350933  0.58440511  0.35709985    -0.14300
C264        C  0.51906841  0.62128188  0.34933828    -0.29500
H265        H  0.04592282  0.60245901  0.41744069     0.14700
H266        H  0.50060016  0.62159144  0.31757016     0.15300
C267        C  0.48600583  0.59100856  0.61381837    -0.14300
C268        C  0.51433173  0.62361268  0.60097496    -0.29500
H269        H  0.45570837  0.59367907  0.60018839     0.14700
H270        H  0.03316260  0.63278770  0.64239586     0.15300
C271        C  0.51053857  0.91846986  0.59291918    -0.14300
C272        C  0.49794205  0.87372119  0.60269922    -0.29500
H273        H  0.00103118  0.93470393  0.58805015     0.14700
H274        H  0.48534882  0.86574616  0.63895812     0.15300
C275        C  0.38895391  0.62819529  0.97608850    -0.14300
C276        C  0.35331060  0.62667884  0.00205686    -0.29500
H277        H  0.39483466  0.65649748  0.95028402     0.14700
H278        H  0.34633705  0.59657449  0.02524387     0.15300
C279        C  0.14049489  0.87120871  0.01852985    -0.14300
C280        C  0.10352184  0.86480614  0.00046086    -0.29500
H281        H  0.14801773  0.90520017  0.03546997     0.14700
H282        H  0.09662136  0.83176360  0.98124240     0.15300
C283        C  0.14411615  0.62366835  0.01986144    -0.14300
C284        C  0.10876371  0.62626821  0.99768752    -0.29500
H285        H  0.15142469  0.59200428  0.03968070     0.14700
H286        H  0.10273818  0.65679439  0.97548671     0.15300
C287        C  0.38681132  0.87052758  0.97028260    -0.14300
C288        C  0.35112426  0.87482087  0.99615122    -0.29500
H289        H  0.39248564  0.83950195  0.94656748     0.14700
H290        H  0.34449990  0.90706469  0.01766483     0.15300
C291        C  0.98071161  0.00141075  0.23227928    -0.14300
C292        C  0.00937532  0.01471144  0.19871496    -0.29500
H293        H  0.95326007  0.98379789  0.22080470     0.14700
H294        H  0.48193227  0.53524835  0.19907541     0.15300
C295        C  0.50139475  0.50599549  0.76996446    -0.14300
C296        C  0.49762643  0.46863376  0.80004331    -0.29500
H297        H  0.00349451  0.54817746  0.80972833     0.14700
H298        H  0.51573826  0.05635580  0.78609354     0.15300
Zn299      Zn  0.99067560  0.43626311  0.97637790     1.49700
Zn300      Zn  0.95103284  0.50915191  0.05769779     1.49400
Zn301      Zn  0.54703274  0.99264527  0.02637072     1.49100
Zn302      Zn  0.99461496  0.05061116  0.96474407     1.49500
O303        O  0.50013022  0.99663046  0.98564905    -1.82000
O304        O  0.93620103  0.40591916  0.99811105    -0.72600
O305        O  0.96839340  0.52398742  0.12637962    -0.72400
O306        O  0.57902451  0.43851296  0.01142670    -0.71900
O307        O  0.91385448  0.45285579  0.06034374    -0.72600
O308        O  0.53875652  0.38920958  0.97137683    -0.72200
O309        O  0.53325452  0.49840840  0.09898097    -0.72800
O310        O  0.54889736  0.09798649  0.97304659    -0.72200
O311        O  0.91613424  0.05991733  0.04660826    -0.73000
O312        O  0.58138553  0.05169238  0.02282391    -0.72300
O313        O  0.94467664  0.09026840  0.97880100    -0.72800
O314        O  0.99390218  0.02725443  0.89411619    -0.72700
O315        O  0.99113179  0.44476165  0.90247084    -0.72500
C316        C  0.90992996  0.41651729  0.03256239     0.79300
C317        C  0.50127495  0.50834042  0.12518595     0.79800
C318        C  0.57228183  0.39816181  0.99152603     0.78700
C319        C  0.57799046  0.09067631  0.00069520     0.79100
C320        C  0.91680542  0.09013768  0.01263421     0.80200
C321        C  0.99157673  0.98584664  0.87447439     0.79300
N322        N  0.68421665  0.24626826  0.02448441    -0.34500
N323        N  0.74559708  0.17393490  0.03909520    -0.55000
N324        N  0.80752781  0.24645874  0.02766220    -0.34500
N325        N  0.74620006  0.31938363  0.01868189    -0.55000
C326        C  0.66165726  0.20934984  0.04140425     0.29100
C327        C  0.66150798  0.28605399  0.03217048     0.29100
C328        C  0.82961056  0.20983141  0.04335240     0.29100
C329        C  0.83025789  0.28622204  0.03240388     0.29100
C330        C  0.71326255  0.14556174  0.03175479     0.37700
C331        C  0.77871183  0.14570770  0.03392578     0.37700
C332        C  0.71374523  0.34537051  0.00667577     0.37700
C333        C  0.77984810  0.34483818  0.00577422     0.37700
C334        C  0.62454636  0.22581274  0.06083640    -0.19700
C335        C  0.62452985  0.27427117  0.05531161    -0.19700
C336        C  0.86649568  0.22653629  0.05895241    -0.19700
C337        C  0.86715635  0.27457794  0.05150287    -0.19700
C338        C  0.72584234  0.09906708  0.02235056    -0.20800
C339        C  0.76739839  0.09915290  0.02388975    -0.20800
C340        C  0.72687879  0.38794430  0.98667282    -0.20800
C341        C  0.76872682  0.38757786  0.98608960    -0.20800
C342        C  0.67252670  0.16086549  0.03596511    -0.16100
C343        C  0.67254567  0.33204783  0.01604051    -0.16100
C344        C  0.82014076  0.33149169  0.01517392    -0.16100
C345        C  0.81887791  0.16128380  0.03961845    -0.16100
H346        H  0.59991427  0.20498575  0.07700687     0.16800
H347        H  0.59988491  0.29796606  0.06682637     0.17900
H348        H  0.89096285  0.20608562  0.07301420     0.16800
H349        H  0.89254600  0.29770401  0.05854276     0.16800
H350        H  0.70716138  0.06824576  0.01512732     0.15000
H351        H  0.78700087  0.06851294  0.01797289     0.15000
H352        H  0.70833087  0.41639890  0.97393589     0.15000
H353        H  0.78863615  0.41582416  0.97328907     0.15000
H354        H  0.71124570  0.24351441  0.00326858     0.28300
H355        H  0.78117633  0.24351982  0.00845447     0.28300
C356        C  0.98584775  0.01461105  0.73694208     0.05300
C357        C  0.00457571  0.46963934  0.70956660    -0.10900
C358        C  0.00272747  0.47107448  0.65835018     0.02800
C359        C  0.97891357  0.01574569  0.63512982    -0.09400
C360        C  0.97622497  0.05840347  0.66248272     0.05300
C361        C  0.97993415  0.05766533  0.71303712    -0.08800
H362        H  0.01214672  0.43649271  0.72617967     0.10900
H363        H  0.97618531  0.01655515  0.59585929     0.08400
H364        H  0.97773127  0.09087337  0.73389196     0.08200
C365        C  0.53209413  0.48979774  0.25694500     0.05300
C366        C  0.53371853  0.44856792  0.28500256    -0.10900
C367        C  0.53807734  0.45229327  0.33584366     0.02800
C368        C  0.54302915  0.49718477  0.35761215    -0.09400
C369        C  0.53266675  0.04063951  0.33245351     0.05300
C370        C  0.52895213  0.04063502  0.28164481    -0.08800
H371        H  0.53147724  0.41393449  0.26722123     0.10900
H372        H  0.54672039  0.50018212  0.39672751     0.08400
H373        H  0.53070679  0.07386221  0.26235073     0.08200
N374        N  0.00609942  0.33270813  0.50602368    -0.34500
N375        N  0.99578061  0.26003227  0.58016979    -0.55000
N376        N  0.99845889  0.18848082  0.50278727    -0.34500
N377        N  0.00477353  0.26104068  0.42846470    -0.55000
C378        C  0.99146051  0.35789650  0.54581706     0.29100
C379        C  0.99843544  0.35844683  0.46623412     0.29100
C380        C  0.98708942  0.16175975  0.54178407     0.29100
C381        C  0.98994266  0.16305806  0.46195786     0.29100
C382        C  0.00204301  0.29854038  0.60942031     0.37700
C383        C  0.00118774  0.22113506  0.60739921     0.37700
C384        C  0.01590236  0.29883720  0.40126512     0.37700
C385        C  0.01086967  0.22210013  0.39930772     0.37700
C386        C  0.97306587  0.39911080  0.53081957    -0.19700
C387        C  0.97786409  0.39968803  0.48073014    -0.19700
C388        C  0.97115461  0.11891451  0.52515506    -0.19700
C389        C  0.97207187  0.12027343  0.47517847    -0.19700
C390        C  0.01094381  0.28406838  0.65575704    -0.20800
C391        C  0.01044190  0.23503723  0.65446247    -0.20800
C392        C  0.02897505  0.28388571  0.35454770    -0.20800
C393        C  0.02564128  0.23513011  0.35327069    -0.20800
C394        C  0.99715791  0.34628545  0.59525738    -0.16100
C395        C  0.01123928  0.34657081  0.41734928    -0.16100
C396        C  0.00134506  0.17528555  0.41316320    -0.16100
C397        C  0.99441654  0.17363393  0.59128404    -0.16100
H398        H  0.95795470  0.42630067  0.55358178     0.16800
H399        H  0.96719518  0.42726212  0.45759294     0.16800
H400        H  0.96029597  0.08889761  0.54580548     0.16800
H401        H  0.96166653  0.09206064  0.45134297     0.16800
H402        H  0.01683401  0.30639394  0.68732808     0.15000
H403        H  0.01545865  0.21231004  0.68496284     0.15000
H404        H  0.03931159  0.30574782  0.32437061     0.15000
H405        H  0.03304250  0.21196726  0.32201298     0.15000
H406        H  0.02455349  0.30266790  0.50630843     0.28300
H407        H  0.01601894  0.21922989  0.50379435     0.28300
C408        C  0.03511417  0.42624608  0.39105908    -0.14300
C409        C  0.01599180  0.38510545  0.38068478    -0.29500
H410        H  0.55229031  0.41437168  0.40252310     0.14700
H411        H  0.00264860  0.37980125  0.34551067     0.15300
C412        C  0.02115405  0.09606915  0.38042322    -0.14300
C413        C  0.00133183  0.13709422  0.37454192    -0.29500
H414        H  0.55338625  0.08213245  0.39560300     0.14700
H415        H  0.98140922  0.14096504  0.34444033     0.15300
C416        C  0.96841777  0.10345834  0.63769546    -0.14300
C417        C  0.99855236  0.13433380  0.62665933    -0.29500
H418        H  0.93861396  0.10846907  0.62335946     0.14700
H419        H  0.54185066  0.11864007  0.61900796     0.15300
C420        C  0.01096130  0.42880237  0.62585856    -0.14300
C421        C  0.99516092  0.38516989  0.63397208    -0.29500
H422        H  0.53216007  0.42324595  0.56984482     0.14700
H423        H  0.97923001  0.37827107  0.66876385     0.15300
C424        C  0.88462744  0.12613482  0.01186696    -0.14300
C425        C  0.85118505  0.12481694  0.04189381    -0.29500
H426        H  0.88805540  0.15414954  0.98524534     0.14700
H427        H  0.84618839  0.09532628  0.06646116     0.15300
C428        C  0.64032069  0.36917185  0.01245435    -0.14300
C429        C  0.60412797  0.36091602  0.99237102    -0.29500
H430        H  0.64717153  0.40473597  0.02604939     0.14700
H431        H  0.59768921  0.32606339  0.97665707     0.15300
C432        C  0.64003199  0.12416804  0.03501535    -0.14300
C433        C  0.60849445  0.12841767  0.00616430    -0.29500
H434        H  0.64387996  0.09169196  0.05503914     0.14700
H435        H  0.60567156  0.16011768  0.98459339     0.15300
C436        C  0.87378061  0.38641525  0.04147016    -0.14300
C437        C  0.85401776  0.36550352  0.00503663    -0.29500
H438        H  0.86235401  0.38215793  0.07904056     0.14700
H439        H  0.86341788  0.37204683  0.96719893     0.15300
C440        C  0.52921476  0.48540979  0.20322720    -0.14300
C441        C  0.50323728  0.51179181  0.17888628    -0.29500
H442        H  0.54776892  0.45865363  0.18355109     0.14700
H443        H  0.03833309  0.02811969  0.21063095     0.15300
C444        C  0.98962186  0.01741174  0.79103344    -0.14300
C445        C  0.98984306  0.97991219  0.82070165    -0.29500
H446        H  0.49728242  0.94973517  0.77660842     0.14700
H447        H  0.99392566  0.43961267  0.80652112     0.15300
Zn448      Zn  0.99045732  0.93790602  0.97283727     1.49700
Zn449      Zn  0.95024131  0.00304606  0.05970152     1.49400
Zn450      Zn  0.54528851  0.49644413  0.02579665     1.49100
Zn451      Zn  0.00011000  0.54780434  0.96372339     1.49500
O452        O  0.49591551  0.49488322  0.98928051    -1.82000
O453        O  0.93696314  0.90560685  0.99108048    -0.72600
O454        O  0.96902883  0.00812225  0.12892793    -0.72400
O455        O  0.58247054  0.93750238  0.00419347    -0.71900
O456        O  0.91219396  0.94770486  0.05554684    -0.72600
O457        O  0.55056743  0.90338448  0.94268670    -0.72200
O458        O  0.52996260  0.98527356  0.09754435    -0.72800
O459        O  0.54712810  0.58622390  0.94738180    -0.72200
O460        O  0.91592216  0.56157385  0.03481523    -0.73000
O461        O  0.57934668  0.55344464  0.00766709    -0.72300
O462        O  0.94971241  0.58741402  0.96835958    -0.72800
O463        O  0.00383940  0.52182762  0.89482045    -0.72700
O464        O  0.99012929  0.94878644  0.90025960    -0.72500
C465        C  0.90954226  0.91350345  0.02479605     0.79300
C466        C  0.49575635  0.98322836  0.12120948     0.79800
C467        C  0.58019360  0.90535883  0.97090057     0.78700
C468        C  0.57655700  0.58535936  0.97568872     0.79100
C469        C  0.91890832  0.58851559  0.99810170     0.80200
C470        C  0.99790907  0.48081223  0.87587178     0.79300
N471        N  0.68618465  0.74535990  0.98555949    -0.34500
N472        N  0.74629415  0.67162191  0.99784166    -0.55000
N473        N  0.80957043  0.74303479  0.99736911    -0.34500
N474        N  0.75006889  0.81721413  0.99024124    -0.55000
C475        C  0.66239555  0.70775895  0.99810822     0.29100
C476        C  0.66421906  0.78519752  0.99639169     0.29100
C477        C  0.82949482  0.70515873  0.01389930     0.29100
C478        C  0.83202166  0.78193667  0.00757258     0.29100
C479        C  0.71414088  0.64407143  0.98741180     0.37700
C480        C  0.77913976  0.64287796  0.99452984     0.37700
C481        C  0.71845257  0.84550036  0.98082860     0.37700
C482        C  0.78412978  0.84350603  0.98255575     0.37700
C483        C  0.62496219  0.72386538  0.01692946    -0.19700
C484        C  0.62614070  0.77263592  0.01599133    -0.19700
C485        C  0.86463859  0.72029411  0.03548930    -0.19700
C486        C  0.86659265  0.76864747  0.03074922    -0.19700
C487        C  0.72662479  0.59768830  0.97712102    -0.20800
C488        C  0.76791910  0.59693841  0.98168990    -0.20800
C489        C  0.73246309  0.89017448  0.96753063    -0.20800
C490        C  0.77415505  0.88882943  0.96843556    -0.20800
C491        C  0.67340807  0.65926171  0.99217120    -0.16100
C492        C  0.67713380  0.83251922  0.98764934    -0.16100
C493        C  0.82352350  0.82845721  0.99309059    -0.16100
C494        C  0.81855128  0.65708755  0.00624815    -0.16100
H495        H  0.59957701  0.70280499  0.03078967     0.16800
H496        H  0.60176013  0.79608962  0.02898811     0.17900
H497        H  0.88710455  0.69872523  0.05212292     0.16800
H498        H  0.89095879  0.79113282  0.04287023     0.16800
H499        H  0.70786583  0.56737598  0.96816818     0.15000
H500        H  0.78732789  0.56602053  0.97680482     0.15000
H501        H  0.71452376  0.92072713  0.95870741     0.15000
H502        H  0.79464918  0.91822303  0.96102641     0.15000
H503        H  0.71430840  0.74373172  0.96654024     0.28300
H504        H  0.78513469  0.74181524  0.97469749     0.28300
C505        C  0.99845847  0.51156461  0.73849270     0.05300
C506        C  0.98845755  0.97161518  0.70885466    -0.10900
C507        C  0.98521158  0.97211858  0.65768458     0.02800
C508        C  0.99415448  0.51437696  0.63642717    -0.09400
C509        C  0.98766578  0.55607511  0.66467478     0.05300
C510        C  0.99028382  0.55457568  0.71542726    -0.08800
H511        H  0.99428993  0.93824268  0.72593487     0.10900
H512        H  0.99220076  0.51549584  0.59707270     0.08400
H513        H  0.98512009  0.58692506  0.73710961     0.08200
C514        C  0.52357976  0.99764251  0.25547463     0.05300
C515        C  0.52152098  0.95438067  0.28067106    -0.10900
C516        C  0.52631948  0.95426938  0.33157712     0.02800
C517        C  0.53230517  0.99745623  0.35659310    -0.09400
C518        C  0.54081624  0.53846494  0.33041632     0.05300
C519        C  0.53493152  0.53482506  0.28004643    -0.08800
H520        H  0.51825948  0.92122344  0.26037996     0.10900
H521        H  0.53559073  0.99763615  0.39584121     0.08400
H522        H  0.53400815  0.56670451  0.25864285     0.08200
N523        N  0.97775003  0.83033778  0.51057400    -0.34500
N524        N  0.98467293  0.75856686  0.58398344    -0.55000
N525        N  0.99260742  0.68778202  0.50512347    -0.34500
N526        N  0.98162240  0.75887742  0.43181384    -0.55000
C527        C  0.96502409  0.85388100  0.55223257     0.29100
C528        C  0.96249020  0.85370534  0.47283758     0.29100
C529        C  0.98647524  0.65954983  0.54438030     0.29100
C530        C  0.98679432  0.66057197  0.46455332     0.29100
C531        C  0.98914867  0.79789367  0.61272242     0.37700
C532        C  0.99653756  0.72092333  0.60972920     0.37700
C533        C  0.98402469  0.79854284  0.40490177     0.37700
C534        C  0.99393425  0.72242552  0.40169493     0.37700
C535        C  0.94032608  0.89155150  0.54081871    -0.19700
C536        C  0.93893261  0.89159210  0.49073191    -0.19700
C537        C  0.97639468  0.61406661  0.52808763    -0.19700
C538        C  0.97588122  0.61501423  0.47814892    -0.19700
C539        C  0.00349971  0.78513227  0.65731953    -0.20800
C540        C  0.00801673  0.73635354  0.65550061    -0.20800
C541        C  0.99743623  0.78719375  0.35727041    -0.20800
C542        C  0.00368435  0.73882479  0.35524457    -0.20800
C543        C  0.97805183  0.84446372  0.59971228    -0.16100
C544        C  0.97253807  0.84429034  0.42265954    -0.16100
C545        C  0.99481682  0.67444412  0.41548707    -0.16100
C546        C  0.99404691  0.67274669  0.59359608    -0.16100
H547        H  0.92537816  0.91693637  0.56593227     0.16800
H548        H  0.92291907  0.91708417  0.46977571     0.16800
H549        H  0.97071314  0.58254839  0.54899554     0.16800
H550        H  0.96927681  0.58493578  0.45448239     0.16800
H551        H  0.00963972  0.80832834  0.68815126     0.15000
H552        H  0.01811682  0.71473112  0.68475575     0.15000
H553        H  0.00224365  0.81111689  0.32711891     0.15000
H554        H  0.01417062  0.71816579  0.32328236     0.15000
H555        H  0.00005123  0.80408894  0.50767069     0.28300
H556        H  0.00553354  0.72153826  0.50549165     0.28300
C557        C  0.98837978  0.92623491  0.39733649    -0.14300
C558        C  0.97116948  0.88388056  0.38725705    -0.29500
H559        H  0.54061224  0.91384167  0.39622383     0.14700
H560        H  0.95820055  0.87683562  0.35222480     0.15300
C561        C  0.02894061  0.60097341  0.38435947    -0.14300
C562        C  0.00276121  0.63649395  0.37695403    -0.29500
H563        H  0.56110469  0.58526575  0.38971344     0.14700
H564        H  0.98516369  0.63626718  0.34444155     0.15300
C565        C  0.97568196  0.60026071  0.64073487    -0.14300
C566        C  0.00282626  0.63437414  0.62864237    -0.29500
H567        H  0.94525991  0.60182272  0.62725655     0.14700
H568        H  0.54443590  0.62102497  0.61520455     0.15300
C569        C  0.98989141  0.92879182  0.62544736    -0.14300
C570        C  0.97795015  0.88432311  0.63744483    -0.29500
H571        H  0.52319722  0.92610369  0.55655055     0.14700
H572        H  0.96719983  0.87717099  0.67465974     0.15300
C573        C  0.88632869  0.62228823  0.98943811    -0.14300
C574        C  0.84954810  0.61985688  0.01260954    -0.29500
H575        H  0.89273572  0.65032697  0.96344883     0.14700
H576        H  0.84179240  0.59019856  0.03608396     0.15300
C577        C  0.64632303  0.87125031  0.99020168    -0.14300
C578        C  0.61222863  0.86883520  0.96515138    -0.29500
H579        H  0.65228542  0.90253164  0.01277310     0.14700
H580        H  0.60743822  0.83871069  0.94053015     0.15300
C581        C  0.64153970  0.62190623  0.99666931    -0.14300
C582        C  0.60790090  0.62261328  0.97099542    -0.29500
H583        H  0.64698502  0.59210720  0.02007738     0.14700
H584        H  0.60346807  0.65112647  0.94564946     0.15300
C585        C  0.87334069  0.88290627  0.02849998    -0.14300
C586        C  0.85786475  0.86244701  0.98882390    -0.29500
H587        H  0.85837520  0.87789618  0.06428502     0.14700
H588        H  0.87117886  0.86933405  0.95257994     0.15300
C589        C  0.52398857  0.99866919  0.20141857    -0.14300
C590        C  0.49483785  0.97870156  0.17500624    -0.29500
H591        H  0.54753048  0.01984277  0.18304064     0.14700
H592        H  0.97957842  0.54679894  0.21851677     0.15300
C593        C  0.00099024  0.51307703  0.79267769    -0.14300
C594        C  0.99810611  0.47507036  0.82185943    -0.29500
H595        H  0.50336392  0.54141956  0.78639930     0.14700
H596        H  0.98742897  0.94396577  0.80605045     0.15300
loop_ 
_geom_bond_atom_site_label_1 
_geom_bond_atom_site_label_2 
_geom_bond_distance 
_geom_bond_site_symmetry_2 
_ccdc_geom_bond_type 
Zn1           O6   2.057       .  S
Zn1          O17   2.053       .  S
Zn1         O308   2.071       .  S
Zn1         O452   1.971       .  S
Zn2           O7   2.025       .  S
Zn2           O9   1.987       .  S
Zn2         O162   2.005       .  S
Zn2         O452   1.957   1_554  S
Zn3          O14   1.989   1_565  S
Zn3         O157   2.005       .  S
Zn3         O160   2.017   1_565  S
Zn3           O5   1.947   1_455  S
Zn4          O15   1.994       .  S
Zn4          O16   2.003       .  S
Zn4         O310   2.004       .  S
Zn4         O303   1.952   1_545  S
O5         Zn448   1.958   1_554  S
O5         Zn449   1.962   1_565  S
O5         Zn302   1.964   1_564  S
O6           C18   1.281   1_556  A
O7          C317   1.272       .  A
O8         Zn152   2.016       .  S
O8           C20   1.275       .  A
O9           C18   1.269       .  A
O10        Zn299   2.048   1_455  S
O10          C20   1.278   1_556  A
O11        Zn152   2.038       .  S
O11          C19   1.276       .  A
O12        Zn302   2.022   1_455  S
O12          C21   1.272       .  A
O13        Zn151   2.023   1_545  S
O13          C22   1.275   1_554  A
O14          C21   1.271   1_554  A
O15          C22   1.270       .  A
O16          C23   1.270       .  A
O17         C172   1.276       .  A
C18         C138   1.473       .  S
C19         O305   1.274   1_455  A
C19         C143   1.481       .  S
C20         C131   1.481       .  S
C21         C135   1.471       .  S
C22         C126   1.469       .  S
C23         O166   1.276   1_545  A
C23         C147   1.477       .  S
N24          C29   1.354       .  A
N24          C28   1.352       .  A
N24          H56   1.042   1_554  S
N25          C32   1.347       .  A
N25          C33   1.350       .  A
N26          C31   1.348       .  A
N26          C30   1.353       .  A
N26          H57   1.041   1_554  S
N27          C34   1.352       .  A
N27          C35   1.352   1_554  A
C28          C36   1.385       .  A
C28          C44   1.411       .  A
C29          C45   1.416       .  A
C29          C37   1.388       .  A
C30          C38   1.388       .  A
C30          C47   1.414       .  A
C31          C46   1.405   1_554  A
C31          C39   1.386       .  A
C32          C44   1.407       .  A
C32          C40   1.388   1_554  A
C33          C47   1.407       .  A
C33          C41   1.385   1_554  A
C34          C42   1.387   1_554  A
C34          C45   1.416       .  A
C35          C43   1.385       .  A
C35          C46   1.413       .  A
C36          C37   1.374       .  A
C36          H48   1.082       .  S
C37          H49   1.082       .  S
C38          C39   1.372       .  A
C38          H50   1.082       .  S
C39          H51   1.082       .  S
C40          C41   1.373       .  A
C40          H52   1.082       .  S
C41          H53   1.082       .  S
C42          C43   1.379       .  A
C42          H54   1.082       .  S
C43          H55   1.082       .  S
C44         C134   1.481       .  S
C45         C130   1.498       .  S
C46         C139   1.480       .  S
C47         C127   1.488       .  S
C58         C146   1.489       .  S
C58          C63   1.414   1_565  A
C58         C208   1.406       .  A
C59          C60   1.410       .  A
C59         C207   1.416       .  A
C59          H64   1.081       .  S
C60         C122   1.488       .  S
C60         C210   1.406       .  A
C61          C62   1.404       .  A
C61         C209   1.405   1_545  A
C61          H65   1.083       .  S
C62         C118   1.483       .  S
C62          C63   1.402       .  A
C63          H66   1.082       .  S
C67         C142   1.483       .  S
C67          C68   1.407       .  A
C67         C221   1.412       .  A
C68          C69   1.405       .  A
C68          H73   1.083       .  S
C69         C408   1.486       .  S
C69          C70   1.400       .  A
C70         C220   1.402       .  A
C70          H74   1.085       .  S
C71         C412   1.477       .  S
C71          C72   1.402       .  A
C71         C219   1.399       .  A
C72         C216   1.407   1_455  A
C72          H75   1.084       .  S
N76          C81   1.355       .  A
N76          C80   1.355       .  A
N76         H108   1.041       .  S
N77          C84   1.355       .  A
N77          C85   1.355       .  A
N78          C83   1.355       .  A
N78          C82   1.356       .  A
N78         H109   1.040       .  S
N79          C86   1.349       .  A
N79          C87   1.350       .  A
C80          C88   1.389       .  A
C80          C96   1.422       .  A
C81          C97   1.417       .  A
C81          C89   1.385       .  A
C82          C90   1.389       .  A
C82          C99   1.421       .  A
C83          C98   1.419       .  A
C83          C91   1.385       .  A
C84          C96   1.419       .  A
C84          C92   1.386       .  A
C85          C99   1.419       .  A
C85          C93   1.386       .  A
C86          C94   1.386       .  A
C86          C97   1.406       .  A
C87          C95   1.386       .  A
C87          C98   1.407       .  A
C88          C89   1.374       .  A
C88         H100   1.082       .  S
C89         H101   1.082       .  S
C90          C91   1.370       .  A
C90         H102   1.077       .  S
C91         H103   1.082       .  S
C92          C93   1.379       .  A
C92         H104   1.082       .  S
C93         H105   1.082       .  S
C94          C95   1.373       .  A
C94         H106   1.082       .  S
C95         H107   1.082       .  S
C96         C123   1.505       .  S
C97         C111   1.489       .  S
C98         C115   1.492       .  S
C99         C119   1.498       .  S
C110        C367   1.481       .  S
C110        C111   1.342       .  D
C110        H410   1.088       .  S
C111        H113   1.086       .  S
H112        C408   1.087       .  S
C114        C369   1.478       .  S
C114        C115   1.343       .  D
C114        H414   1.088       .  S
C115        H117   1.086       .  S
H116        C412   1.088       .  S
C118        C119   1.346       .  D
C118        H120   1.086       .  S
C119        H419   1.086       .  S
H121        C417   1.087   1_455  S
C122        C123   1.351       .  D
C122        H422   1.087       .  S
C123        H125   1.086       .  S
H124        C420   1.087       .  S
C126        C127   1.342   1_556  D
C126        H128   1.087       .  S
C127        H129   1.087       .  S
C130        C131   1.351       .  D
C130        H132   1.086       .  S
C131        H133   1.086   1_554  S
C134        C135   1.344   1_554  D
C134        H136   1.087       .  S
C135        H137   1.087       .  S
C138        C139   1.337   1_554  D
C138        H140   1.087       .  S
C139        H141   1.086       .  S
C142        C143   1.344       .  D
C142        H144   1.087       .  S
C143        H592   1.087   1_455  S
H145        C590   1.086       .  S
C146        C147   1.344   1_565  D
C146        H446   1.087       .  S
C147        H298   1.084       .  S
H148        C444   1.087       .  S
H149        C296   1.084       .  S
Zn150       O155   2.029       .  S
Zn150       O457   2.027       .  S
Zn150       O166   2.036       .  S
Zn150       O303   1.968       .  S
Zn151       O156   2.042       .  S
Zn151       O158   2.000       .  S
Zn151       O303   1.964   1_554  S
Zn152       O163   2.020       .  S
Zn152       O154   1.958   1_455  S
Zn153       O459   2.007       .  S
Zn153       O164   2.016       .  S
Zn153       O165   2.009       .  S
Zn153       O452   1.959       .  S
O154       Zn299   1.964   1_554  S
O154       Zn300   1.955       .  S
O154       Zn451   1.952   1_654  S
O155        C167   1.274       .  A
O156        C466   1.275       .  A
O157        C169   1.274       .  A
O158        C167   1.272   1_554  A
O159       Zn448   2.032   1_455  S
O159        C169   1.276   1_556  A
O160        C168   1.272       .  A
O161       Zn451   2.006       .  S
O161        C170   1.271   1_556  A
O162        C171   1.273   1_554  A
O163        C170   1.274       .  A
O164        C171   1.271       .  A
O165        C172   1.273       .  A
C167        C287   1.474       .  S
C168        O454   1.273   1_455  A
C168        C292   1.475       .  S
C169        C280   1.476       .  S
C170        C284   1.472   1_554  S
C171        C275   1.473       .  S
C172        C296   1.487       .  S
N173        C178   1.352       .  A
N173        C177   1.352       .  A
N173        H205   1.042   1_554  S
N174        C181   1.351       .  A
N174        C182   1.351   1_554  A
N175        C180   1.352   1_556  A
N175        C179   1.353   1_556  A
N175        H206   1.041       .  S
N176        C183   1.353       .  A
N176        C184   1.352   1_554  A
C177        C185   1.386       .  A
C177        C193   1.413       .  A
C178        C194   1.414       .  A
C178        C186   1.387       .  A
C179        C187   1.386       .  A
C179        C196   1.413   1_554  A
C180        C195   1.413   1_554  A
C180        C188   1.387       .  A
C181        C193   1.409       .  A
C181        C189   1.386   1_554  A
C182        C196   1.408       .  A
C182        C190   1.386       .  A
C183        C191   1.387   1_554  A
C183        C194   1.413       .  A
C184        C192   1.386       .  A
C184        C195   1.412       .  A
C185        C186   1.374       .  A
C185        H197   1.082       .  S
C186        H198   1.082       .  S
C187        C188   1.372       .  A
C187        H199   1.082       .  S
C188        H200   1.082       .  S
C189        C190   1.372       .  A
C189        H201   1.082       .  S
C190        H202   1.082       .  S
C191        C192   1.373       .  A
C191        H203   1.082       .  S
C192        H204   1.082       .  S
C193        C283   1.486       .  S
C194        C279   1.491       .  S
C195        C288   1.488       .  S
C196        C276   1.486   1_556  S
C207        C295   1.493       .  S
C207        C212   1.412       .  A
C208        C209   1.405       .  A
C208        H213   1.083       .  S
C209        C271   1.489       .  S
C210        C211   1.401       .  A
C210        H214   1.084       .  S
C211        C267   1.485       .  S
C211        C212   1.400       .  A
C212        H215   1.084       .  S
C216        C291   1.479       .  S
C216        C217   1.407   1_545  A
C217        C218   1.410       .  A
C217        H222   1.081       .  S
C218        C557   1.489       .  S
C218        C219   1.401   1_665  A
C219        H223   1.085       .  S
C220        C561   1.482       .  S
C220        C221   1.407       .  A
C221        H224   1.083       .  S
N225        C230   1.355       .  A
N225        C229   1.354       .  A
N225        H257   1.042       .  S
N226        C233   1.353       .  A
N226        C234   1.355       .  A
N227        C232   1.354       .  A
N227        C231   1.358       .  A
N227        H258   1.040       .  S
N228        C235   1.350       .  A
N228        C236   1.348       .  A
C229        C237   1.388       .  A
C229        C245   1.418       .  A
C230        C246   1.416       .  A
C230        C238   1.385       .  A
C231        C239   1.389       .  A
C231        C248   1.422       .  A
C232        C247   1.420       .  A
C232        C240   1.386       .  A
C233        C245   1.418       .  A
C233        C241   1.387       .  A
C234        C248   1.418       .  A
C234        C242   1.386       .  A
C235        C243   1.385       .  A
C235        C246   1.406       .  A
C236        C244   1.387       .  A
C236        C247   1.407       .  A
C237        C238   1.375       .  A
C237        H249   1.082       .  S
C238        H250   1.082       .  S
C239        C240   1.371       .  A
C239        H251   1.078       .  S
C240        H252   1.082       .  S
C241        C242   1.379       .  A
C241        H253   1.082       .  S
C242        H254   1.082       .  S
C243        C244   1.375       .  A
C243        H255   1.082       .  S
C244        H256   1.082       .  S
C245        C272   1.502       .  S
C246        C260   1.494       .  S
C247        C264   1.487       .  S
C248        C268   1.501       .  S
C259        C516   1.484       .  S
C259        C260   1.343       .  D
C259        H559   1.088       .  S
C260        H262   1.085       .  S
H261        C557   1.088   1_455  S
C263        C518   1.475       .  S
C263        C264   1.341       .  D
C263        H563   1.088       .  S
C264        H266   1.086       .  S
H265        C561   1.088       .  S
C267        C268   1.347       .  D
C267        H269   1.086       .  S
C268        H568   1.086       .  S
H270        C566   1.086       .  S
C271        C272   1.352       .  D
C271        H571   1.086       .  S
C272        H274   1.085       .  S
H273        C569   1.087   1_455  S
C275        C276   1.344   1_556  D
C275        H277   1.087       .  S
C276        H278   1.087       .  S
C279        C280   1.347       .  D
C279        H281   1.087       .  S
C280        H282   1.087   1_554  S
C283        C284   1.342   1_554  D
C283        H285   1.087       .  S
C284        H286   1.087       .  S
C287        C288   1.347       .  D
C287        H289   1.087       .  S
C288        H290   1.087   1_556  S
C291        C292   1.343   1_655  D
C291        H293   1.087   1_545  S
C292        H443   1.087       .  S
H294        C441   1.087       .  S
C295        C296   1.351       .  D
C295        H595   1.087       .  S
H297        C593   1.087       .  S
Zn299       O304   2.053       .  S
Zn299       O315   2.043       .  S
Zn300       O305   2.027       .  S
Zn300       O307   2.000       .  S
Zn300       O460   2.006       .  S
Zn301       O455   2.008       .  S
Zn301       O458   2.017       .  S
Zn301       O312   2.009   1_565  S
Zn301       O303   1.954   1_554  S
Zn302       O313   2.006       .  S
Zn302       O314   2.030       .  S
O304        C316   1.279   1_556  A
O306       Zn450   1.995       .  S
O306        C318   1.272   1_554  A
O307        C316   1.270       .  A
O308        C318   1.281       .  A
O309       Zn450   2.023       .  S
O309        C317   1.273       .  A
O310        C319   1.270   1_556  A
O311       Zn449   2.006       .  S
O311        C320   1.273       .  A
O312        C319   1.272       .  A
O313        C320   1.272   1_556  A
O314        C321   1.275   1_545  A
O315        C470   1.274       .  A
C316        C436   1.473       .  S
C317        C441   1.476       .  S
C318        C429   1.485       .  S
C319        C433   1.470       .  S
C320        C424   1.469       .  S
C321        O464   1.271       .  A
C321        C445   1.482       .  S
N322        C327   1.354       .  A
N322        C326   1.352       .  A
N322        H354   1.041       .  S
N323        C330   1.350       .  A
N323        C331   1.350       .  A
N324        C329   1.352       .  A
N324        C328   1.352       .  A
N324        H355   1.039       .  S
N325        C332   1.354       .  A
N325        C333   1.355       .  A
C326        C334   1.385       .  A
C326        C342   1.413       .  A
C327        C343   1.417       .  A
C327        C335   1.388       .  A
C328        C336   1.385       .  A
C328        C345   1.412       .  A
C329        C344   1.414       .  A
C329        C337   1.389       .  A
C330        C342   1.409       .  A
C330        C338   1.387       .  A
C331        C345   1.408       .  A
C331        C339   1.386       .  A
C332        C340   1.387   1_554  A
C332        C343   1.420       .  A
C333        C341   1.386   1_554  A
C333        C344   1.417       .  A
C334        C335   1.374       .  A
C334        H346   1.082       .  S
C335        H347   1.082       .  S
C336        C337   1.371       .  A
C336        H348   1.082       .  S
C337        H349   1.080       .  S
C338        C339   1.372       .  A
C338        H350   1.082       .  S
C339        H351   1.082       .  S
C340        C341   1.378       .  A
C340        H352   1.082       .  S
C341        H353   1.082       .  S
C342        C432   1.486       .  S
C343        C428   1.499       .  S
C344        C437   1.488       .  S
C345        C425   1.484       .  S
C356        C444   1.493       .  S
C356        C506   1.419   1_545  A
C356        C361   1.408       .  A
C357        C505   1.415   1_455  A
C357        C358   1.408       .  A
C357        H362   1.081       .  S
C358        C420   1.486       .  S
C358        C508   1.405   1_455  A
C359        C507   1.406   1_545  A
C359        C360   1.401       .  A
C359        H363   1.084       .  S
C360        C416   1.480       .  S
C360        C361   1.396       .  A
C361        H364   1.084       .  S
C365        C440   1.481       .  S
C365        C366   1.408       .  A
C365        C519   1.408       .  A
C366        C367   1.408       .  A
C366        H371   1.083       .  S
C367        C368   1.397       .  A
C368        C518   1.397       .  A
C368        H372   1.085       .  S
C369        C517   1.395   1_545  A
C369        C370   1.403       .  A
C370        C514   1.407   1_545  A
C370        H373   1.084       .  S
N374        C379   1.356   1_455  A
N374        C378   1.355   1_455  A
N374        H406   1.042       .  S
N375        C382   1.354   1_655  A
N375        C383   1.355   1_655  A
N376        C381   1.354       .  A
N376        C380   1.357       .  A
N376        H407   1.040   1_655  S
N377        C384   1.351       .  A
N377        C385   1.350       .  A
C378        C386   1.389       .  A
C378        C394   1.421       .  A
C379        C395   1.416   1_655  A
C379        C387   1.385       .  A
C380        C388   1.389       .  A
C380        C397   1.421       .  A
C381        C396   1.420   1_655  A
C381        C389   1.386       .  A
C382        C394   1.418   1_455  A
C382        C390   1.386       .  A
C383        C397   1.418   1_455  A
C383        C391   1.386       .  A
C384        C392   1.386       .  A
C384        C395   1.410       .  A
C385        C393   1.386       .  A
C385        C396   1.409       .  A
C386        C387   1.373       .  A
C386        H398   1.082       .  S
C387        H399   1.082       .  S
C388        C389   1.369       .  A
C388        H400   1.077       .  S
C389        H401   1.082       .  S
C390        C391   1.379       .  A
C390        H402   1.082       .  S
C391        H403   1.082       .  S
C392        C393   1.375       .  A
C392        H404   1.082       .  S
C393        H405   1.082       .  S
C394        C421   1.505       .  S
C395        C409   1.496       .  S
C396        C413   1.490       .  S
C397        C417   1.497       .  S
C408        C409   1.347       .  D
C409        H411   1.085       .  S
C412        C413   1.344       .  D
C413        H415   1.086   1_455  S
C416        C417   1.345       .  D
C416        H418   1.086       .  S
C420        C421   1.350   1_455  D
C421        H423   1.086       .  S
C424        C425   1.343       .  D
C424        H426   1.087   1_554  S
C425        H427   1.087       .  S
C428        C429   1.355   1_554  D
C428        H430   1.086       .  S
C429        H431   1.086       .  S
C432        C433   1.343       .  D
C432        H434   1.087       .  S
C433        H435   1.087   1_554  S
C436        C437   1.342       .  D
C436        H438   1.087       .  S
C437        H439   1.086   1_554  S
C440        C441   1.345       .  D
C440        H442   1.087       .  S
C444        C445   1.346   1_545  D
C445        H596   1.083       .  S
H447        C594   1.084       .  S
Zn448       O453   2.026       .  S
Zn448       O464   2.018       .  S
Zn449       O454   2.025       .  S
Zn449       O456   2.001   1_545  S
Zn450       O461   2.012       .  S
Zn450       O452   1.951   1_554  S
Zn451       O462   1.999   1_455  S
Zn451       O463   2.006       .  S
O453        C465   1.276   1_556  A
O455        C467   1.274   1_554  A
O456        C465   1.270       .  A
O457        C467   1.275       .  A
O458        C466   1.274       .  A
O459        C468   1.271       .  A
O460        C469   1.272   1_554  A
O461        C468   1.274   1_554  A
O462        C469   1.270       .  A
O463        C470   1.273   1_455  A
C465        C585   1.470       .  S
C466        C590   1.480       .  S
C467        C578   1.475       .  S
C468        C582   1.472       .  S
C469        C573   1.466       .  S
C470        C594   1.484       .  S
N471        C476   1.354       .  A
N471        C475   1.355       .  A
N471        H503   1.041       .  S
N472        C479   1.349       .  A
N472        C480   1.350       .  A
N473        C478   1.351   1_556  A
N473        C477   1.351   1_556  A
N473        H504   1.041       .  S
N474        C481   1.350       .  A
N474        C482   1.353       .  A
C475        C483   1.386   1_556  A
C475        C491   1.416       .  A
C476        C492   1.418       .  A
C476        C484   1.388   1_556  A
C477        C485   1.387       .  A
C477        C494   1.412       .  A
C478        C493   1.408   1_554  A
C478        C486   1.387       .  A
C479        C491   1.408       .  A
C479        C487   1.387       .  A
C480        C494   1.407   1_556  A
C480        C488   1.385       .  A
C481        C489   1.387       .  A
C481        C492   1.413       .  A
C482        C490   1.385       .  A
C482        C493   1.411       .  A
C483        C484   1.373       .  A
C483        H495   1.082       .  S
C484        H496   1.082       .  S
C485        C486   1.370       .  A
C485        H497   1.082       .  S
C486        H498   1.081       .  S
C487        C488   1.372       .  A
C487        H499   1.082       .  S
C488        H500   1.082       .  S
C489        C490   1.375       .  A
C489        H501   1.082       .  S
C490        H502   1.082       .  S
C491        C581   1.486       .  S
C492        C577   1.489       .  S
C493        C586   1.481       .  S
C494        C574   1.483       .  S
C505        C593   1.490   1_655  S
C505        C510   1.410       .  A
C506        C507   1.411       .  A
C506        H511   1.080       .  S
C507        C569   1.492       .  S
C508        C509   1.401       .  A
C508        H512   1.084       .  S
C509        C565   1.481       .  S
C509        C510   1.398       .  A
C510        H513   1.084       .  S
C514        C589   1.481       .  S
C514        C515   1.412       .  A
C515        C516   1.411       .  A
C515        H520   1.083       .  S
C516        C517   1.399       .  A
C517        H521   1.085       .  S
C518        C519   1.404       .  A
C519        H522   1.083       .  S
N523        C528   1.355       .  A
N523        C527   1.355       .  A
N523        H555   1.042   1_655  S
N524        C531   1.355       .  A
N524        C532   1.354       .  A
N525        C530   1.356       .  A
N525        C529   1.358       .  A
N525        H556   1.040   1_655  S
N526        C533   1.351       .  A
N526        C534   1.351       .  A
C527        C535   1.388       .  A
C527        C543   1.420       .  A
C528        C544   1.417       .  A
C528        C536   1.386       .  A
C529        C537   1.390       .  A
C529        C546   1.424       .  A
C530        C545   1.420       .  A
C530        C538   1.384       .  A
C531        C543   1.418       .  A
C531        C539   1.386   1_655  A
C532        C546   1.419       .  A
C532        C540   1.387   1_655  A
C533        C541   1.387       .  A
C533        C544   1.411       .  A
C534        C542   1.385   1_655  A
C534        C545   1.410       .  A
C535        C536   1.375       .  A
C535        H547   1.082       .  S
C536        H548   1.082       .  S
C537        C538   1.369       .  A
C537        H549   1.077       .  S
C538        H550   1.082       .  S
C539        C540   1.380       .  A
C539        H551   1.082       .  S
C540        H552   1.082       .  S
C541        C542   1.376   1_655  A
C541        H553   1.082   1_655  S
C542        H554   1.082       .  S
C543        C570   1.507       .  S
C544        C558   1.495       .  S
C545        C562   1.498   1_655  S
C546        C566   1.498   1_655  S
C557        C558   1.347       .  D
C558        H560   1.083       .  S
C561        C562   1.346       .  D
C562        H564   1.086   1_455  S
C565        C566   1.346   1_655  D
C565        H567   1.086       .  S
C569        C570   1.353       .  D
C570        H572   1.085       .  S
C573        C574   1.342   1_556  D
C573        H575   1.087       .  S
C574        H576   1.087       .  S
C577        C578   1.345       .  D
C577        H579   1.087   1_556  S
C578        H580   1.087       .  S
C581        C582   1.342       .  D
C581        H583   1.087   1_556  S
C582        H584   1.087       .  S
C585        C586   1.340   1_554  D
C585        H587   1.087       .  S
C586        H588   1.086       .  S
C589        C590   1.345       .  D
C589        H591   1.087   1_565  S
C593        C594   1.349   1_455  D
