geometry optimzed in LAMMPS
_audit_creation_date              2020-11-30 
_audit_creation_method            'lammps2cif' 
_symmetry_space_group_name_H-M    'P1' 
_symmetry_Int_Tables_number       1 
_symmetry_cell_setting            triclinic 
loop_ 
_symmetry_equiv_pos_as_xyz 
  x,y,z 
_cell_length_a                    30.68763323587121 
_cell_length_b                    27.3076120461038 
_cell_length_c                    55.39608589589487 
_cell_angle_alpha                 90.298968185522 
_cell_angle_beta                  90.20198875904947 
_cell_angle_gamma                 89.7723946122356 
loop_ 
_atom_site_label 
_atom_site_type_symbol 
_atom_site_fract_x 
_atom_site_fract_y 
_atom_site_fract_z 
_atom_site_charge 
O1          O  0.89967187  0.43037949  0.80353937    -0.75330
O2          O  0.94130187  0.36957960  0.78686561    -0.54230
C3          C  0.90815091  0.38537050  0.79892903     0.78400
O4          O  0.90939447  0.59096721  0.71258807    -0.59930
O5          O  0.94422983  0.65093828  0.73375575    -0.52960
C6          C  0.91772790  0.63613948  0.71712820     0.70420
O7          O  0.90706205  0.42809329  0.71558157    -0.74480
O8          O  0.94609862  0.36932047  0.73531600    -0.55050
C9          C  0.91651714  0.38325288  0.72021803     0.76420
O10         O  0.90279818  0.59033060  0.80829020    -0.59630
O11         O  0.93696380  0.65063606  0.78707534    -0.52750
C12         C  0.90820744  0.63500057  0.80214788     0.73010
Zr13       Zr  0.92974459  0.51043997  0.79763219     2.54710
O14         O  0.85083435  0.51290769  0.80176679    -0.80190
O15         O  0.93954907  0.50601471  0.84119919    -0.93610
Zr16       Zr  0.93009928  0.50983674  0.72631962     2.64680
O17         O  0.85073235  0.51070542  0.72674474    -0.98570
O18         O  0.93417411  0.50632678  0.68243377    -0.80630
O19         O  0.92957965  0.46261586  0.76195751    -0.83990
O20         O  0.92793952  0.55769849  0.76187699    -2.18690
O21         O  0.07586995  0.59376825  0.81132037    -0.67370
O22         O  0.04199551  0.65253081  0.78872196    -0.51940
C23         C  0.06943425  0.63827937  0.80502624     0.71390
O24         O  0.08455731  0.43018439  0.71755437    -0.60280
O25         O  0.04454887  0.37101288  0.73602583    -0.52260
C26         C  0.07533696  0.38522489  0.72195683     0.73200
O27         O  0.07319891  0.59337885  0.71192718    -0.71680
O28         O  0.03694039  0.65178889  0.73362975    -0.50350
C29         C  0.06313947  0.63820076  0.71666072     0.74580
O30         O  0.08816013  0.43363157  0.80396427    -0.67010
O31         O  0.04919490  0.37125777  0.78693941    -0.54200
C32         C  0.08180799  0.38830962  0.79908793     0.72960
Zr33       Zr  0.05540483  0.51274240  0.79839912     2.77540
O34         O  0.13447866  0.51732082  0.80207161    -0.97760
O35         O  0.04658070  0.50473071  0.84184761    -0.78580
Zr36       Zr  0.05746431  0.51174420  0.72714305     2.70070
O37         O  0.13636299  0.51958728  0.72926635    -0.79830
O38         O  0.05451851  0.50090465  0.68352701    -0.98910
Zr39       Zr  0.99440218  0.41438342  0.76255983     2.21500
Zr40       Zr  0.99141533  0.60781369  0.76225069     2.11130
O41         O  0.05700926  0.56031606  0.76270693    -2.47600
O42         O  0.05757785  0.46479999  0.76281628    -0.79620
O43         O  0.99165047  0.56145072  0.79868976    -0.71810
O44         O  0.99450928  0.46190476  0.72635328    -2.32770
O45         O  0.99341247  0.46149613  0.79912018    -2.28980
O46         O  0.99299807  0.55931164  0.72626143    -0.73570
H47         H  0.90189523  0.57754017  0.76140430     0.78420
H48         H  0.99517281  0.44085323  0.71229300     0.79510
H49         H  0.08231991  0.58122571  0.76273252     0.81740
H50         H  0.99365765  0.44055884  0.81312813     0.79340
H51         H  0.95473606  0.47927500  0.67881535     0.42380
H52         H  0.03743708  0.52921576  0.67756859     0.41350
H53         H  0.14474266  0.50152954  0.74403892     0.41030
H54         H  0.14316382  0.54497652  0.79167032     0.38960
H55         H  0.03168961  0.53532844  0.84688748     0.42090
H56         H  0.93816566  0.47064857  0.84495926     0.36880
H57         H  0.83979580  0.51280077  0.78494650     0.42990
H58         H  0.84267433  0.54106606  0.73552624     0.39410
H59         H  0.14000013  0.52889488  0.81876971     0.44330
H60         H  0.91222568  0.51977685  0.84790063     0.43050
H61         H  0.84226057  0.51706338  0.70977988     0.43190
H62         H  0.08467436  0.50687167  0.67801851     0.43540
C63         C  0.69256038  0.31600676  0.86471451     0.03100
C64         C  0.73510087  0.32888898  0.85773657    -0.13050
C65         C  0.75856075  0.29888866  0.84153472     0.00600
C66         C  0.73956638  0.25614403  0.83246711    -0.11580
C67         C  0.69684202  0.24412411  0.83849476     0.03090
C68         C  0.67395545  0.27315856  0.85521162    -0.11000
H69         H  0.74892030  0.36327797  0.86381076     0.08680
H70         H  0.75654067  0.23485448  0.81881703     0.06210
H71         H  0.64076124  0.26374589  0.85987230     0.06060
O72         O  0.56114943  0.10592803  0.79151457    -0.75330
O73         O  0.61476682  0.06541916  0.77106856    -0.54230
C74         C  0.60110280  0.09864699  0.78582966     0.78400
O75         O  0.42254906  0.90027088  0.78902733    -0.59930
O76         O  0.36893424  0.94545481  0.77109738    -0.52960
C77         C  0.38249419  0.91047864  0.78467086     0.70420
O78         O  0.56675765  0.91277049  0.79384178    -0.74480
O79         O  0.61751456  0.95540944  0.77261051    -0.55050
C80         C  0.60605352  0.92438766  0.78878421     0.76420
O81         O  0.41733494  0.09699700  0.79446160    -0.59630
O82         O  0.36642571  0.05574068  0.77227351    -0.52750
C83         C  0.37796598  0.08689291  0.78858857     0.73010
Zr84       Zr  0.48979034  0.07565351  0.78152827     2.54710
O85         O  0.49363263  0.07206835  0.82537069    -0.80190
O86         O  0.48353562  0.16460130  0.78194842    -0.93610
Zr87       Zr  0.49409428  0.93096066  0.78004655     2.64680
O88         O  0.49071394  0.92867482  0.82394405    -0.98570
O89         O  0.50026179  0.84204826  0.77806384    -0.80630
O90         O  0.53423534  0.00475517  0.78211101    -0.83990
O91         O  0.44985692  0.00188394  0.78216806    -2.18690
O92         O  0.41395800  0.09866056  0.69780203    -0.67370
O93         O  0.36639456  0.05472240  0.72023650    -0.51940
C94         C  0.37495196  0.08617118  0.70387792     0.71390
O95         O  0.56896886  0.91359521  0.69530444    -0.60280
O96         O  0.61621498  0.95568847  0.71926809    -0.52260
C97         C  0.60796662  0.92586853  0.70195843     0.73200
O98         O  0.41885907  0.90605863  0.69640455    -0.71680
O99         O  0.36994498  0.94943117  0.71881990    -0.50350
C100        C  0.37941971  0.91758500  0.70254102     0.74580
O101        O  0.56233388  0.10385835  0.69773753    -0.67010
O102        O  0.61301026  0.06088756  0.71895827    -0.54200
C103        C  0.60211040  0.09316726  0.70323885     0.72960
Zr104      Zr  0.48903928  0.07751979  0.70959057     2.77540
O105        O  0.48979424  0.07557113  0.66564298    -0.97760
O106        O  0.48633137  0.16656957  0.71112601    -0.78580
Zr107      Zr  0.49345562  0.93183140  0.70836691     2.70070
O108        O  0.49179488  0.93301409  0.66444745    -0.79830
O109        O  0.49774760  0.84289468  0.71019169    -0.98910
Zr110      Zr  0.57474025  0.00729049  0.74581232     2.21500
Zr111      Zr  0.40878627  0.00219134  0.74587322     2.11130
O112        O  0.44918076  0.00342389  0.70903566    -2.47600
O113        O  0.53354982  0.00619840  0.70911469    -0.79620
O114        O  0.44747907  0.07719877  0.74572577    -0.71810
O115        O  0.53607952  0.93178994  0.74434262    -2.32770
O116        O  0.53101158  0.07940311  0.74558604    -2.28980
O117        O  0.45161241  0.92939397  0.74436404    -0.73570
H118        H  0.43121877  0.00068153  0.79616716     0.78420
H119        H  0.55598943  0.90430895  0.74421159     0.79510
H120        H  0.42998056  0.00311981  0.69518629     0.81740
H121        H  0.54869582  0.10857113  0.74555328     0.79340
H122        H  0.52577979  0.83550383  0.76763420     0.42380
H123        H  0.47423554  0.83348950  0.72143078     0.41350
H124        H  0.50444795  0.96509419  0.66015675     0.41030
H125        H  0.46409425  0.05578024  0.66101854     0.38960
H126        H  0.46630215  0.17416397  0.72462329     0.42090
H127        H  0.50550119  0.17589752  0.77019363     0.36880
H128        H  0.50385343  0.03839688  0.82885928     0.42990
H129        H  0.46275978  0.94474266  0.82814867     0.39410
H130        H  0.48208578  0.10939082  0.66082456     0.44330
H131        H  0.49524229  0.17473555  0.79787887     0.43050
H132        H  0.48624031  0.89369234  0.82780204     0.43190
H133        H  0.48742249  0.83167461  0.69414419     0.43540
C134        C  0.22194486  0.72312478  0.84634877     0.03100
C135        C  0.24154269  0.76544362  0.83714049    -0.13050
C136        C  0.28574721  0.77423266  0.84079022     0.00600
C137        C  0.30988565  0.74389549  0.85611994    -0.11580
C138        C  0.29094315  0.70237505  0.86633642     0.03090
C139        C  0.24720604  0.69111885  0.86085634    -0.11000
H140        H  0.22326540  0.78969770  0.82539880     0.08680
H141        H  0.34410106  0.75146836  0.85928564     0.06210
H142        H  0.23328647  0.65744562  0.86753422     0.06060
C143        C  0.75941564  0.72187452  0.84671510     0.03100
C144        C  0.74369902  0.76592089  0.83746781    -0.13050
C145        C  0.70014348  0.77892190  0.84022641     0.00600
C146        C  0.67300383  0.75024846  0.85474674    -0.11580
C147        C  0.68927100  0.70834981  0.86654434     0.03090
C148        C  0.73253102  0.69326148  0.86165628    -0.11000
H149        H  0.76476039  0.78824159  0.82639692     0.08680
H150        H  0.63899192  0.76032872  0.85667252     0.06210
H151        H  0.74480972  0.65904873  0.86883543     0.06060
C152        C  0.22971851  0.29609369  0.84307947     0.03100
C153        C  0.24477462  0.25051065  0.83524163    -0.13050
C154        C  0.28677622  0.23444340  0.84120965     0.00600
C155        C  0.31317184  0.26373913  0.85631746    -0.11580
C156        C  0.29743103  0.30851782  0.86562761     0.03090
C157        C  0.25571631  0.32471411  0.85858110    -0.11000
H158        H  0.22510700  0.22930116  0.82271735     0.08680
H159        H  0.34642515  0.25274600  0.86011480     0.06210
H160        H  0.24445345  0.36076676  0.86400033     0.06060
C161        C  0.23002991  0.18649613  0.65841377     0.03100
C162        C  0.20864859  0.22199744  0.67242644    -0.13050
C163        C  0.16970597  0.24343641  0.66422989     0.00600
C164        C  0.15349777  0.23059626  0.64137896    -0.11580
C165        C  0.17360468  0.19356098  0.62780816     0.03090
C166        C  0.21203383  0.17168036  0.63631973    -0.11000
H167        H  0.22137905  0.23138456  0.69012702     0.08680
H168        H  0.12391797  0.24751549  0.63465821     0.06210
H169        H  0.22682214  0.14178069  0.62629035     0.06060
C170        C  0.15994168  0.84703367  0.63160892     0.03100
C171        C  0.13818655  0.80949695  0.64375169    -0.13050
C172        C  0.15736651  0.78668565  0.66374327     0.00600
C173        C  0.19942211  0.80050195  0.67104616    -0.11580
C174        C  0.22144268  0.83844706  0.65918337     0.03090
C175        C  0.20178945  0.86117704  0.63920612    -0.11000
H176        H  0.10570097  0.79898538  0.63803161     0.08680
H177        H  0.21441420  0.78309307  0.68654169     0.06210
H178        H  0.21806811  0.89124543  0.63033265     0.06060
C179        C  0.74992026  0.19195257  0.66054841     0.03100
C180        C  0.77062511  0.23003197  0.67321673    -0.13050
C181        C  0.81017737  0.24897952  0.66491044     0.00600
C182        C  0.82855950  0.23004817  0.64376544    -0.11580
C183        C  0.80805793  0.19238873  0.63088720     0.03090
C184        C  0.76857024  0.17338434  0.63929026    -0.11000
H185        H  0.75685590  0.24350905  0.68998668     0.08680
H186        H  0.85996571  0.24337471  0.63780405     0.06210
H187        H  0.75387142  0.14223883  0.63025879     0.06060
C188        C  0.81886963  0.83805352  0.62855275     0.03100
C189        C  0.83994487  0.80064231  0.64141789    -0.13050
C190        C  0.82084311  0.78060269  0.66205614     0.00600
C191        C  0.77930136  0.79660122  0.66922051    -0.11580
C192        C  0.75801301  0.83415052  0.65656596     0.03090
C193        C  0.77816478  0.85518272  0.63647163    -0.11000
H194        H  0.87208266  0.78842567  0.63590259     0.08680
H195        H  0.76437368  0.78138409  0.68519992     0.06210
H196        H  0.76308661  0.88644144  0.62778479     0.06060
O197        O  0.58025158  0.60666822  0.95013968    -0.75330
O198        O  0.54374102  0.56487830  0.92051350    -0.54230
C199        C  0.57263583  0.59611114  0.92789331     0.78400
O200        O  0.58483397  0.41857608  0.02979734    -0.59930
O201        O  0.54626449  0.45807318  0.05929646    -0.52960
C202        C  0.57636391  0.42816555  0.05202897     0.70420
O203        O  0.58514857  0.42101066  0.94995176    -0.74480
O204        O  0.54606536  0.45820502  0.92023237    -0.55050
C205        C  0.57731530  0.42981046  0.92757246     0.76420
O206        O  0.57648321  0.61175422  0.03017917    -0.59630
O207        O  0.54137425  0.56963521  0.05961121    -0.52750
C208        C  0.56833883  0.60278335  0.05244727     0.73010
Zr209      Zr  0.55509866  0.58470359  0.99003883     2.54710
O210        O  0.63438720  0.58446454  0.99131888    -0.80190
O211        O  0.54884449  0.67362996  0.98889066    -0.93610
Zr212      Zr  0.55857271  0.44084067  0.98996388     2.64680
O213        O  0.63796012  0.44122090  0.98921383    -0.98570
O214        O  0.55336144  0.35186137  0.98989467    -0.80630
O215        O  0.55691159  0.51255638  0.96622593    -0.83990
O216        O  0.55820542  0.51308873  0.01383691    -2.18690
O217        O  0.40624435  0.60901540  0.03098070    -0.67370
O218        O  0.44391610  0.56695381  0.05991447    -0.51940
C219        C  0.41506058  0.59881503  0.05314438     0.71390
O220        O  0.40430154  0.41576801  0.95068797    -0.60280
O221        O  0.44119862  0.45472628  0.92080941    -0.52260
C222        C  0.41153080  0.42476117  0.92829488     0.73200
O223        O  0.40907663  0.41360454  0.03053902    -0.71680
O224        O  0.44494224  0.45587344  0.05989811    -0.50350
C225        C  0.41657859  0.42388099  0.05285405     0.74580
O226        O  0.40045070  0.60019687  0.95093977    -0.66410
O227        O  0.43911881  0.56320906  0.92082937    -0.54200
C228        C  0.40822880  0.59169226  0.92852791     0.72960
Zr229      Zr  0.42809685  0.58168365  0.99074555     2.77540
O230        O  0.34875830  0.58005827  0.99176912    -0.97760
O231        O  0.43264943  0.67055886  0.98870909    -0.78580
Zr232      Zr  0.43158257  0.43768560  0.99039581     2.70070
O233        O  0.35233537  0.43538161  0.99152562    -0.79830
O234        O  0.43989812  0.34901975  0.98929868    -0.98910
Zr235      Zr  0.49257081  0.51041127  0.94181669     2.21500
Zr236      Zr  0.49395780  0.51155396  0.03822403     2.11130
O237        O  0.42895206  0.50978382  0.01434134    -2.47600
O238        O  0.42910114  0.50951866  0.96678174    -0.79620
O239        O  0.49209033  0.58441372  0.01452309    -0.71810
O240        O  0.49468080  0.43755540  0.96579778    -2.32770
O241        O  0.49103871  0.58380254  0.96596609    -2.28980
O242        O  0.49549020  0.43819690  0.01443763    -0.73570
H243        H  0.58408627  0.51415900  0.02379425     0.78420
H244        H  0.49511031  0.40872599  0.95561830     0.79510
H245        H  0.40341213  0.50938123  0.02447635     0.81740
H246        H  0.49009712  0.61236778  0.95576309     0.79340
H247        H  0.54444532  0.34301009  0.97324849     0.42380
H248        H  0.45783617  0.34125028  0.00367939     0.41350
H249        H  0.34306852  0.46744305  0.98495615     0.41030
H250        H  0.34141965  0.56079398  0.00627963     0.38960
H251        H  0.45345802  0.67965370  0.00166166     0.42090
H252        H  0.53198036  0.68078725  0.97404962     0.36880
H253        H  0.64288794  0.55397706  0.98277206     0.42990
H254        H  0.64673509  0.46273498  0.00281281     0.39410
H255        H  0.34008422  0.61405295  0.99587383     0.44330
H256        H  0.57868938  0.68506227  0.98528342     0.43050
H257        H  0.64669259  0.40787342  0.99429821     0.43190
H258        H  0.41056540  0.33639507  0.99320504     0.43540
C259        C  0.30843544  0.70825622  0.12231341     0.03100
C260        C  0.32045931  0.75165551  0.13461188    -0.13050
C261        C  0.29255083  0.77286734  0.15198468     0.00600
C262        C  0.25353454  0.74966853  0.15778687    -0.11580
C263        C  0.24221858  0.70545134  0.14671207     0.03090
C264        C  0.26874578  0.68579586  0.12850290    -0.11000
H265        H  0.35228447  0.76746771  0.13180167     0.08680
H266        H  0.23351536  0.76418180  0.17227257     0.06210
H267        H  0.25942502  0.65152993  0.12002441     0.06060
C268        C  0.73866473  0.32231297  0.15147500     0.03100
C269        C  0.72298767  0.27717406  0.15982423    -0.13050
C270        C  0.69204048  0.25026037  0.14634491     0.00600
C271        C  0.67643641  0.27126518  0.12461008    -0.11580
C272        C  0.68716282  0.31929996  0.11812096     0.03090
C273        C  0.71920298  0.34409492  0.13128064    -0.11000
H274        H  0.73396032  0.26448945  0.17727087     0.08680
H275        H  0.65367162  0.25187721  0.11313971     0.06210
H276        H  0.72822463  0.38095760  0.12618808     0.06060
C277        C  0.73760147  0.71047318  0.14884013     0.03100
C278        C  0.71246906  0.68737298  0.13096930    -0.13050
C279        C  0.67292983  0.70824069  0.12331909     0.00600
C280        C  0.65970023  0.75350168  0.13306932    -0.11580
C281        C  0.68511525  0.77699948  0.15079561     0.03090
C282        C  0.72406260  0.75540847  0.15853239    -0.11000
H283        H  0.72268815  0.65211714  0.12386844     0.08680
H284        H  0.62846107  0.76898631  0.12792798     0.06210
H285        H  0.74216898  0.77173345  0.17334941     0.06060
O286        O  0.40884461  0.91965142  0.20038032    -0.75330
O287        O  0.35659107  0.95970078  0.22216608    -0.54230
C288        C  0.36945821  0.92626268  0.20722191     0.78400
O289        O  0.56096994  0.92688147  0.29091066    -0.59930
O290        O  0.61021992  0.96874303  0.26830387    -0.52960
C291        C  0.60015866  0.93820198  0.28497015     0.70420
O292        O  0.41494483  0.92344960  0.29353028    -0.74480
O293        O  0.36199683  0.96613531  0.27372737    -0.55050
C294        C  0.37483750  0.93442625  0.28931876     0.76420
O295        O  0.55171071  0.91908709  0.19701667    -0.59630
O296        O  0.60648048  0.96072899  0.21598594    -0.52750
C297        C  0.59199748  0.92632073  0.20213825     0.73010
Zr298      Zr  0.48075328  0.95117453  0.20765304     2.54710
O299        O  0.47584328  0.86268163  0.20348442    -0.80190
O300        O  0.47896662  0.96095087  0.16402121    -0.93610
Zr301      Zr  0.48674000  0.94743254  0.27914156     2.64680
O302        O  0.48764625  0.85839285  0.27640068    -0.98570
O303        O  0.48987001  0.94772682  0.32307976    -0.80630
O304        O  0.44168232  0.94747989  0.24433641    -0.83990
O305        O  0.52585456  0.94775220  0.24237332    -2.18690
O306        O  0.55015270  0.11606036  0.19604950    -0.67370
O307        O  0.60628151  0.07296332  0.21216194    -0.51940
C308        C  0.59064310  0.10529507  0.19752225     0.71390
O309        O  0.41498104  0.11728240  0.29419778    -0.60280
O310        O  0.36215842  0.07491612  0.27382423    -0.52260
C311        C  0.37492159  0.10726346  0.28926267     0.73200
O312        O  0.56144374  0.11484268  0.29134939    -0.71680
O313        O  0.61010055  0.07424031  0.26746448    -0.50350
C314        C  0.60045145  0.10517021  0.28419681     0.74580
O315        O  0.40925521  0.13030329  0.22163320    -0.67010
O316        O  0.35752929  0.07418057  0.21913430    -0.54200
C317        C  0.37251951  0.11626158  0.21330874     0.72960
Zr318      Zr  0.47884251  0.09519530  0.21057954     2.77540
O319        O  0.48359643  0.18407819  0.20720287    -0.97760
O320        O  0.45547352  0.09736348  0.16856614    -0.78580
Zr321      Zr  0.48719331  0.09085645  0.28118777     2.70070
O322        O  0.48773800  0.17997232  0.28188658    -0.79830
O323        O  0.48984371  0.08281271  0.32491717    -0.98910
Zr324      Zr  0.39825400  0.01963983  0.24593343     2.21500
Zr325      Zr  0.56844911  0.02067645  0.24134350     2.11130
O326        O  0.52627622  0.09423411  0.24427581    -2.47600
O327        O  0.44066711  0.09250356  0.24724180    -0.79620
O328        O  0.52253239  0.02361044  0.20664826    -0.71810
O329        O  0.44378260  0.01925863  0.28123092    -2.32770
O330        O  0.43669663  0.02258479  0.20847753    -2.28980
O331        O  0.53012839  0.01897392  0.27888347    -0.73570
H332        H  0.54400240  0.91881558  0.24213286     0.78420
H333        H  0.42642161  0.01901802  0.29573678     0.79510
H334        H  0.54462694  0.12288691  0.24401990     0.81740
H335        H  0.41689081  0.02319047  0.19488752     0.79340
H336        H  0.47008003  0.97460189  0.32809413     0.42380
H337        H  0.51596358  0.06238535  0.32806369     0.41350
H338        H  0.47812849  0.18946088  0.26547478     0.41030
H339        H  0.51358234  0.19300573  0.21212877     0.38960
H340        H  0.47439866  0.07304377  0.16037210     0.42090
H341        H  0.44920026  0.97304896  0.16043200     0.36880
H342        H  0.47256209  0.85090048  0.22025909     0.42990
H343        H  0.51491705  0.85021646  0.26774750     0.39410
H344        H  0.48198424  0.19115815  0.18973293     0.44330
H345        H  0.47933956  0.92701627  0.15763378     0.43050
H346        H  0.49293073  0.84741406  0.29316982     0.43190
H347        H  0.49789214  0.11584037  0.33084863     0.43540
O348        O  0.06126918  0.61531397  0.19023053    -0.75330
O349        O  0.11323844  0.57332340  0.21094495    -0.54230
C350        C  0.10126607  0.60483755  0.19495837     0.78400
O351        O  0.92037621  0.62181662  0.28563570    -0.59930
O352        O  0.86724972  0.57867229  0.26594584    -0.52960
C353        C  0.88048809  0.61285004  0.28028164     0.70420
O354        O  0.06516109  0.61699250  0.28574291    -0.74480
O355        O  0.11674485  0.57577938  0.26389906    -0.55050
C356        C  0.10464862  0.60781298  0.27965714     0.76420
O357        O  0.91441992  0.61620659  0.19257077    -0.59630
O358        O  0.86516680  0.57201193  0.21380985    -0.52750
C359        C  0.87502239  0.60475969  0.19824853     0.73010
Zr360      Zr  0.98868881  0.59132136  0.20331001     2.54710
O361        O  0.98880357  0.68045672  0.20383755    -0.80190
O362        O  0.98468283  0.58643653  0.15945522    -0.93610
Zr363      Zr  0.99219608  0.59219412  0.27502076     2.64680
O364        O  0.99690525  0.68122189  0.27517070    -0.98570
O365        O  0.99110951  0.58881526  0.31892303    -0.80630
O366        O  0.03266167  0.59296282  0.23867420    -0.83990
O367        O  0.94863019  0.59321069  0.23966361    -2.18690
O368        O  0.91515427  0.42266751  0.19241735    -0.67370
O369        O  0.86568644  0.46522805  0.21488843    -0.51940
C370        C  0.87574222  0.43324647  0.19874473     0.71390
O371        O  0.06367939  0.41633095  0.28127880    -0.60280
O372        O  0.11656689  0.46140212  0.26311440    -0.52260
C373        C  0.10352014  0.42560438  0.27632317     0.73200
O374        O  0.92002978  0.42018422  0.28496606    -0.71680
O375        O  0.86642556  0.46499660  0.26673409    -0.50350
C376        C  0.87997172  0.43007962  0.28038556     0.74580
O377        O  0.06344209  0.42056785  0.19148986    -0.67010
O378        O  0.11387578  0.46609295  0.21151212    -0.54200
C379        C  0.10324832  0.43249944  0.19637628     0.72960
Zr380      Zr  0.98966795  0.44677824  0.20327342     2.77540
O381        O  0.98997715  0.35759661  0.20372375    -0.97760
O382        O  0.98879630  0.45109505  0.15940007    -0.78580
Zr383      Zr  0.99187311  0.44900327  0.27495033     2.70070
O384        O  0.99031386  0.36059644  0.28023171    -0.79830
O385        O  0.99646108  0.46002133  0.31850526    -0.98910
Zr386      Zr  0.07502842  0.51975270  0.23858327     2.21500
Zr387      Zr  0.90658148  0.52013561  0.24060035     2.11130
O388        O  0.94890442  0.44675136  0.23953503    -2.47600
O389        O  0.03284190  0.44677229  0.23881670    -0.79620
O390        O  0.94630471  0.51903543  0.20358534    -0.71810
O391        O  0.03534953  0.52018229  0.27549173    -2.32770
O392        O  0.03186328  0.51915213  0.20254550    -2.28980
O393        O  0.94873176  0.52077765  0.27673497    -0.73570
H394        H  0.93026431  0.62198263  0.23957869     0.78420
H395        H  0.05474215  0.51976778  0.28926855     0.79510
H396        H  0.93060381  0.41807645  0.23961113     0.81740
H397        H  0.04999055  0.51887155  0.18832744     0.79340
H398        H  0.01400130  0.56471314  0.32320528     0.42380
H399        H  0.96774029  0.47374166  0.32311743     0.41350
H400        H  0.99099780  0.34722323  0.26358627     0.41030
H401        H  0.96553613  0.34859550  0.21442198     0.38960
H402        H  0.96840610  0.47825418  0.15571243     0.42090
H403        H  0.01295818  0.57219281  0.15440950     0.36880
H404        H  0.01051343  0.68926747  0.21637528     0.42990
H405        H  0.97855637  0.69174248  0.26140069     0.39410
H406        H  0.98012004  0.34793230  0.18734581     0.44330
H407        H  0.98581843  0.62092658  0.15407754     0.43050
H408        H  0.98066894  0.69194865  0.28969057     0.43190
H409        H  0.99637162  0.42630710  0.32499546     0.43540
C410        C  0.30110323  0.32181393  0.11889513     0.03100
C411        C  0.31392830  0.27686053  0.12880338    -0.13050
C412        C  0.29191970  0.25766836  0.14883395     0.00600
C413        C  0.25405958  0.28107705  0.15711923    -0.11580
C414        C  0.23981228  0.32486067  0.14657268     0.03090
C415        C  0.26379184  0.34560179  0.12771586    -0.11000
H416        H  0.34315906  0.25897043  0.12221125     0.08680
H417        H  0.23760023  0.26739680  0.17299081     0.06210
H418        H  0.25458908  0.38115774  0.12069219     0.06060
C419        C  0.17640216  0.21580919  0.36241883     0.03100
C420        C  0.21844005  0.19765398  0.35757690    -0.13050
C421        C  0.24464056  0.22004264  0.34013804     0.00600
C422        C  0.23074000  0.26364816  0.32935028    -0.11580
C423        C  0.18947669  0.28261523  0.33419487     0.03090
C424        C  0.16254244  0.25905817  0.35093302    -0.11000
H425        H  0.22991509  0.16461228  0.36622485     0.08680
H426        H  0.25005415  0.27970893  0.31508556     0.06210
H427        H  0.12966291  0.27255053  0.35370236     0.06060
C428        C  0.73718468  0.21348433  0.33212754     0.03100
C429        C  0.74969382  0.25863182  0.32258402    -0.13050
C430        C  0.78797547  0.28119032  0.33053110     0.00600
C431        C  0.81330035  0.25918667  0.34864726    -0.11580
C432        C  0.80130401  0.21361842  0.35806752     0.03090
C433        C  0.76288374  0.19121298  0.34993584    -0.11000
H434        H  0.73146032  0.27432237  0.30768840     0.08680
H435        H  0.84345029  0.27622921  0.35440236     0.06210
H436        H  0.75427228  0.15522574  0.35652442     0.06060
C437        C  0.16254235  0.83184494  0.35642750     0.03100
C438        C  0.20210723  0.85540978  0.35193885    -0.13050
C439        C  0.23120361  0.83633661  0.33485286     0.00600
C440        C  0.22221606  0.79114726  0.32386386    -0.11580
C441        C  0.18306596  0.76693640  0.32842642     0.03090
C442        C  0.15327923  0.78726396  0.34490480    -0.11000
H443        H  0.20966615  0.88910105  0.36141696     0.08680
H444        H  0.24503347  0.77564510  0.31102600     0.06210
H445        H  0.12245971  0.76926356  0.34818495     0.06060
C446        C  0.73893749  0.83321289  0.33326722     0.03100
C447        C  0.75235180  0.78921843  0.32237098    -0.13050
C448        C  0.79050927  0.76561431  0.32997997     0.00600
C449        C  0.81632252  0.78706312  0.34809035    -0.11580
C450        C  0.80341879  0.83119536  0.35908043     0.03090
C451        C  0.76445406  0.85375760  0.35174895    -0.11000
H452        H  0.73399704  0.77426000  0.30730727     0.08680
H453        H  0.84754879  0.77082333  0.35260762     0.06210
H454        H  0.75476498  0.88830673  0.35987406     0.06060
O455        O  0.07755184  0.93090077  0.53022553    -0.75330
O456        O  0.03785584  0.97134244  0.55851386    -0.54230
C457        C  0.06807101  0.94103101  0.55230483     0.78400
O458        O  0.07051912  0.12410807  0.44992951    -0.59930
O459        O  0.03444728  0.08030781  0.42098007    -0.52960
C460        C  0.06164544  0.11358883  0.42784186     0.70420
O461        O  0.07900640  0.11615700  0.53056418    -0.74480
O462        O  0.03808743  0.07662311  0.55851112    -0.55050
C463        C  0.06932062  0.10521178  0.55247283     0.76420
O464        O  0.06962416  0.92518600  0.44949421    -0.59630
O465        O  0.03191923  0.96765621  0.42097675    -0.52750
C466        C  0.05925583  0.93413288  0.42752350     0.73010
Zr467      Zr  0.05200607  0.95259377  0.48980077     2.54710
O468        O  0.13115294  0.95408512  0.48735602    -0.80190
O469        O  0.04925778  0.86350263  0.49098741    -0.93610
Zr470      Zr  0.05143849  0.09773000  0.49023903     2.64680
O471        O  0.13071685  0.09918451  0.48839003    -0.98570
O472        O  0.04605666  0.18666038  0.49253079    -0.80630
O473        O  0.05373456  0.02495212  0.51323947    -0.83990
O474        O  0.05212227  0.02524339  0.46636243    -2.18690
O475        O  0.90154133  0.92727392  0.44988781    -0.67370
O476        O  0.93763615  0.97082843  0.42129623    -0.51940
C477        C  0.90987351  0.93825512  0.42782583     0.71390
O478        O  0.89866972  0.11749365  0.53201864    -0.60280
O479        O  0.93895236  0.07424188  0.55906094    -0.52260
C480        C  0.90883023  0.10502940  0.55372248     0.73200
O481        O  0.89915339  0.12154772  0.45126898    -0.71680
O482        O  0.93502640  0.07934627  0.42181952    -0.50350
C483        C  0.90616505  0.11067504  0.42905060     0.74580
O484        O  0.90191645  0.92819745  0.53100011    -0.67010
O485        O  0.94137481  0.97094305  0.55873891    -0.54200
C486        C  0.91252732  0.93902635  0.55291874     0.72960
Zr487      Zr  0.92313128  0.95236587  0.49032457     2.77540
O488        O  0.84379720  0.95510691  0.49078996    -0.97760
O489        O  0.92566777  0.86327201  0.49009632    -0.78580
Zr490      Zr  0.92297088  0.09757151  0.49125233     2.70070
O491        O  0.84370064  0.09833756  0.49183044    -0.79830
O492        O  0.92780174  0.18650673  0.49263134    -0.98910
Zr493      Zr  0.98880103  0.02417313  0.53626950     2.21500
Zr494      Zr  0.98614549  0.02567559  0.44325185     2.11130
O495        O  0.92154071  0.02531326  0.46726508    -2.47600
O496        O  0.92260297  0.02458998  0.51403663    -0.79620
O497        O  0.98706372  0.95227599  0.46645129    -0.71810
O498        O  0.98790016  0.09887080  0.51437821    -2.32770
O499        O  0.98816872  0.95039129  0.51342552    -2.28980
O500        O  0.98645281  0.09894594  0.46694003    -0.73570
H501        H  0.07720799  0.02510222  0.45587617     0.78420
H502        H  0.98801518  0.12680378  0.52514919     0.79510
H503        H  0.89578797  0.02537670  0.45719247     0.81740
H504        H  0.98859356  0.92205918  0.52378796     0.79340
H505        H  0.03509136  0.19381539  0.50896395     0.42380
H506        H  0.94696978  0.19500891  0.47894791     0.41350
H507        H  0.83561094  0.06446177  0.49617803     0.41030
H508        H  0.83550341  0.97339252  0.47607605     0.38960
H509        H  0.95189405  0.85501572  0.48051823     0.42090
H510        H  0.03447347  0.85560764  0.50632708     0.36880
H511        H  0.13967125  0.98359244  0.49667414     0.42990
H512        H  0.13830800  0.07861986  0.47423335     0.39410
H513        H  0.83479063  0.92096742  0.48740923     0.44330
H514        H  0.07987017  0.85318993  0.49356494     0.43050
H515        H  0.13791072  0.13299226  0.48345139     0.43190
H516        H  0.89850572  0.19803066  0.48764281     0.43540
C517        C  0.84671671  0.90415017  0.37063602    -0.20340
C518        C  0.83252418  0.85680781  0.37637872    -0.06910
C519        C  0.84478792  0.83602132  0.39866382     0.13960
C520        C  0.87111733  0.86306468  0.41457133    -0.20390
C521        C  0.88517316  0.91075222  0.40902469    -0.06910
C522        C  0.87267045  0.93155206  0.38663893     0.13950
C523        C  0.88473373  0.98313432  0.37978143    -0.23740
H524        H  0.83692113  0.91998465  0.35353732     0.15240
H525        H  0.88033757  0.84692323  0.43168903     0.15270
C526        C  0.82859612  0.78639104  0.40628421    -0.23690
H527        H  0.86992992  0.99398426  0.36227059     0.05480
H528        H  0.92059786  0.98620117  0.37787388     0.08700
H529        H  0.87296855  0.00928684  0.39375527     0.08700
H530        H  0.84167325  0.75751140  0.39416927     0.08690
H531        H  0.79243014  0.78578996  0.40571105     0.08690
H532        H  0.83905785  0.77731309  0.42495330     0.05460
C533        C  0.12454842  0.83355729  0.39549285    -0.20340
C534        C  0.13082959  0.85487801  0.37294046    -0.06910
C535        C  0.10982789  0.89961976  0.36743037     0.13960
C536        C  0.08576397  0.92387140  0.38535858    -0.20390
C537        C  0.08157136  0.90427796  0.40863431    -0.06910
C538        C  0.10017486  0.85734777  0.41344573     0.13950
C539        C  0.09493066  0.83145320  0.43725835    -0.23740
H540        H  0.14029740  0.79883323  0.39936288     0.15240
H541        H  0.07105607  0.95899639  0.38117668     0.15270
C542        C  0.11187055  0.92260945  0.34280221    -0.23690
H543        H  0.10809823  0.79351406  0.43663160     0.05480
H544        H  0.05985364  0.82902037  0.44192768     0.08700
H545        H  0.11315937  0.85108824  0.45164140     0.08700
H546        H  0.12945708  0.89955407  0.32949469     0.08690
H547        H  0.12823978  0.95871436  0.34411055     0.08690
H548        H  0.07827533  0.92812769  0.33578937     0.05460
C549        C  0.81175826  0.17825951  0.39850812    -0.20340
C550        C  0.82929474  0.18801385  0.37582078    -0.06910
C551        C  0.87147403  0.17053604  0.37010265     0.13960
C552        C  0.89566193  0.14504810  0.38767771    -0.20390
C553        C  0.87865769  0.13640399  0.41080358    -0.06910
C554        C  0.83553651  0.15270843  0.41605035     0.13950
C555        C  0.81321684  0.14230620  0.43969613    -0.23740
H556        H  0.77897200  0.19082365  0.40248557     0.15240
H557        H  0.92818565  0.13218346  0.38337001     0.15270
C558        C  0.89043526  0.17712355  0.34527027    -0.23690
H559        H  0.77842168  0.15368588  0.43944953     0.05480
H560        H  0.82912020  0.16308029  0.45453323     0.08700
H561        H  0.81423959  0.10240180  0.44342007     0.08700
H562        H  0.89497296  0.21656112  0.34141315     0.08690
H563        H  0.86826369  0.16092511  0.33153083     0.08690
H564        H  0.92270952  0.15891384  0.34355161     0.05460
C565        C  0.10650360  0.11514618  0.39057042    -0.20340
C566        C  0.08640147  0.14105448  0.40942017    -0.06910
C567        C  0.09364603  0.19209069  0.41162390     0.13960
C568        C  0.12336832  0.21494907  0.39619012    -0.20390
C569        C  0.14561379  0.18860528  0.37820425    -0.06910
C570        C  0.13569127  0.13821992  0.37476622     0.13950
C571        C  0.15401190  0.10870959  0.35401630    -0.23740
H572        H  0.10033140  0.07625103  0.38863223     0.15240
H573        H  0.12962744  0.25377588  0.39833528     0.15270
C574        C  0.06926085  0.22309292  0.42974870    -0.23690
H575        H  0.13799395  0.07241895  0.35240714     0.05480
H576        H  0.18920316  0.10150543  0.35666623     0.08700
H577        H  0.14862276  0.12844069  0.33678081     0.08700
H578        H  0.07933127  0.21356014  0.44836692     0.08690
H579        H  0.03364390  0.21741225  0.42755938     0.08690
H580        H  0.07584719  0.26272596  0.42730597     0.05460
C581        C  0.12841963  0.37338853  0.16457914    -0.20340
C582        C  0.13928130  0.40585972  0.18356929    -0.06910
C583        C  0.18422216  0.41158963  0.18976549     0.13960
C584        C  0.21592747  0.38514662  0.17693895    -0.20390
C585        C  0.20460159  0.35305630  0.15827748    -0.06910
C586        C  0.16053413  0.34691016  0.15197208     0.13950
C587        C  0.14755923  0.31222327  0.13201576    -0.23740
H588        H  0.09460017  0.36844181  0.15949560     0.15240
H589        H  0.25008313  0.38904127  0.18164953     0.15270
C590        C  0.19996753  0.44451415  0.20996251    -0.23690
H591        H  0.11169722  0.31164541  0.12926485     0.05480
H592        H  0.15847139  0.27452732  0.13650548     0.08700
H593        H  0.16300810  0.32362208  0.11485281     0.08700
H594        H  0.18521316  0.43318051  0.22732406     0.08690
H595        H  0.19170208  0.48324663  0.20594952     0.08690
H596        H  0.23590128  0.44265435  0.21231757     0.05460
C597        C  0.16229771  0.67945576  0.32768967    -0.20340
C598        C  0.17170955  0.72213296  0.31477709    -0.06910
C599        C  0.16615570  0.72265299  0.28938102     0.13960
C600        C  0.14959659  0.68098329  0.27774016    -0.20390
C601        C  0.13704480  0.63985988  0.29092728    -0.06910
C602        C  0.14450135  0.63842449  0.31605691     0.13950
C603        C  0.13217176  0.59428477  0.33066257    -0.23740
H604        H  0.16689291  0.67918320  0.34710372     0.15240
H605        H  0.14252775  0.68219820  0.25855074     0.15270
C606        C  0.17370405  0.76824174  0.27470982    -0.23690
H607        H  0.14028201  0.59918514  0.35008009     0.05480
H608        H  0.15030532  0.56191112  0.32386031     0.08700
H609        H  0.09665348  0.58740844  0.32916923     0.08700
H610        H  0.20871029  0.77798190  0.27482838     0.08690
H611        H  0.15424608  0.79911838  0.28219050     0.08690
H612        H  0.16391146  0.76306186  0.25554598     0.05460
C613        C  0.83197480  0.63847717  0.31357341    -0.20340
C614        C  0.84883385  0.64738989  0.29052968    -0.06910
C615        C  0.84322849  0.69388348  0.27987614     0.13960
C616        C  0.82150747  0.73078846  0.29271664    -0.20390
C617        C  0.80702966  0.72293464  0.31631560    -0.06910
C618        C  0.81126117  0.67603084  0.32672388     0.13950
C619        C  0.79452343  0.66589821  0.35171576    -0.23740
H620        H  0.83723680  0.60298835  0.32179544     0.15240
H621        H  0.81817004  0.76694235  0.28490133     0.15270
C622        C  0.86276560  0.70573811  0.25565531    -0.23690
H623        H  0.79964313  0.62703175  0.35686006     0.05480
H624        H  0.75905356  0.67390980  0.35247579     0.08700
H625        H  0.81175748  0.68918613  0.36511721     0.08700
H626        H  0.85027268  0.68030938  0.24166007     0.08690
H627        H  0.89874235  0.70231088  0.25659137     0.08690
H628        H  0.85481598  0.74366989  0.24993664     0.05460
C629        C  0.79821166  0.36965760  0.32144832    -0.20340
C630        C  0.80692012  0.32032945  0.31586038    -0.06910
C631        C  0.83495482  0.30836922  0.29653387     0.13960
C632        C  0.85540419  0.34597121  0.28407980    -0.20390
C633        C  0.84886499  0.39514732  0.29043511    -0.06910
C634        C  0.81917235  0.40751539  0.30886621     0.13950
C635        C  0.81135243  0.46012121  0.31590288    -0.23740
H636        H  0.77622525  0.37840729  0.33613249     0.15240
H637        H  0.87838077  0.33669846  0.26990189     0.15270
C638        C  0.84523139  0.25636597  0.28897867    -0.23690
H639        H  0.78751182  0.46333673  0.33087208     0.05480
H640        H  0.79831280  0.48060019  0.30017482     0.08700
H641        H  0.84240027  0.47712756  0.32188953     0.08700
H642        H  0.82778903  0.22840893  0.29960927     0.08690
H643        H  0.88073095  0.24946352  0.29105034     0.08690
H644        H  0.83608092  0.25107196  0.26973412     0.05460
C645        C  0.12446128  0.34076632  0.28395564    -0.20340
C646        C  0.13464574  0.39050118  0.28688490    -0.06910
C647        C  0.16632148  0.40449244  0.30407984     0.13960
C648        C  0.18467123  0.36856903  0.31923383    -0.20390
C649        C  0.17125097  0.31952330  0.31760250    -0.06910
C650        C  0.14219045  0.30514900  0.29912122     0.13950
C651        C  0.12942850  0.25228727  0.29548182    -0.23740
H652        H  0.10028018  0.33014310  0.27061017     0.15240
H653        H  0.20827250  0.37894400  0.33291400     0.15270
C654        C  0.17872642  0.45732198  0.30731911    -0.23690
H655        H  0.10756044  0.24753855  0.27963077     0.05480
H656        H  0.11189447  0.23866595  0.31156696     0.08700
H657        H  0.15901782  0.22957930  0.29244162     0.08700
H658        H  0.14939351  0.47899507  0.31220846     0.08690
H659        H  0.19249267  0.47155243  0.29023665     0.08690
H660        H  0.20345990  0.46212706  0.32181575     0.05460
C661        C  0.37050893  0.19487295  0.19139883    -0.20340
C662        C  0.34886051  0.15098600  0.19700908    -0.06910
C663        C  0.30756782  0.14217194  0.18626907     0.13960
C664        C  0.29005775  0.17687653  0.17003372    -0.20390
C665        C  0.31283634  0.21979475  0.16414410    -0.06910
C666        C  0.35338924  0.22906733  0.17532443     0.13950
C667        C  0.37826998  0.27607567  0.17144011    -0.23740
H668        H  0.40152125  0.20316761  0.19971671     0.15240
H669        H  0.25830146  0.17072157  0.16197192     0.15270
C670        C  0.28145504  0.09713064  0.19193287    -0.23690
H671        H  0.40716125  0.27885240  0.18349729     0.05480
H672        H  0.35694792  0.30811208  0.17526064     0.08700
H673        H  0.39053471  0.27796108  0.15268697     0.08700
H674        H  0.27477863  0.09569483  0.21160222     0.08690
H675        H  0.29962693  0.06382553  0.18623332     0.08690
H676        H  0.24961669  0.09705074  0.18233245     0.05460
C677        C  0.62840409  0.86526042  0.30644320    -0.20340
C678        C  0.63581984  0.91313316  0.29820462    -0.06910
C679        C  0.67617829  0.93589474  0.30348871     0.13960
C680        C  0.70853702  0.90920017  0.31566818    -0.20390
C681        C  0.70151250  0.86080494  0.32314766    -0.06910
C682        C  0.66031223  0.83916176  0.31918491     0.13950
C683        C  0.64831200  0.78930527  0.32862868    -0.23740
H684        H  0.59728176  0.84785989  0.30296353     0.15240
H685        H  0.74004377  0.92588712  0.31887207     0.15270
C686        C  0.68529077  0.98846276  0.29697322    -0.23690
H687        H  0.61836751  0.79242113  0.33974154     0.05480
H688        H  0.67385445  0.77298666  0.34028363     0.08700
H689        H  0.64183631  0.76409543  0.31325101     0.08700
H690        H  0.65974300  0.01273082  0.30472446     0.08690
H691        H  0.68620937  0.99267554  0.27707779     0.08690
H692        H  0.71725460  0.00090719  0.30414556     0.05460
C693        C  0.70782099  0.17046439  0.29654548    -0.20340
C694        C  0.70174072  0.18585633  0.32044426    -0.06910
C695        C  0.66270255  0.17473642  0.33247105     0.13960
C696        C  0.63054607  0.14787904  0.32024212    -0.20390
C697        C  0.63651377  0.13194655  0.29624311    -0.06910
C698        C  0.67583961  0.14371051  0.28420435     0.13950
C699        C  0.68418490  0.12993577  0.25819961    -0.23740
H700        H  0.73803044  0.17947086  0.28751321     0.15240
H701        H  0.60053582  0.13926825  0.32953766     0.15270
C702        C  0.65449006  0.19231062  0.35788734    -0.23690
H703        H  0.71533981  0.14529652  0.25152101     0.05480
H704        H  0.65760350  0.14439925  0.24656386     0.08700
H705        H  0.68643658  0.08954083  0.25627507     0.08700
H706        H  0.65678470  0.23286171  0.35864810     0.08690
H707        H  0.67891095  0.17619896  0.37037252     0.08690
H708        H  0.62161471  0.18169642  0.36429586     0.05460
C709        C  0.34817923  0.14758839  0.32678196    -0.20340
C710        C  0.34114347  0.13545318  0.30233715    -0.06910
C711        C  0.30286146  0.15217549  0.29065262     0.13960
C712        C  0.27255594  0.17959540  0.30378015    -0.20390
C713        C  0.27946386  0.19166981  0.32813691    -0.06910
C714        C  0.31779497  0.17560383  0.33986005     0.13950
C715        C  0.32814005  0.18824878  0.36575024    -0.23740
H716        H  0.37765895  0.13520844  0.33575665     0.15240
H717        H  0.24288640  0.19178892  0.29492368     0.15270
C718        C  0.29420246  0.14319584  0.26415939    -0.23690
H719        H  0.35968461  0.20797474  0.36664174     0.05480
H720        H  0.33086498  0.15410309  0.37645300     0.08700
H721        H  0.30310510  0.21205960  0.37420375     0.08700
H722        H  0.28968690  0.10351882  0.26063399     0.08690
H723        H  0.32178923  0.15722990  0.25333506     0.08690
H724        H  0.26415817  0.16213114  0.25788416     0.05460
C725        C  0.30988691  0.84119038  0.32542681    -0.20340
C726        C  0.26921910  0.86476717  0.32658721    -0.06910
C727        C  0.26435446  0.91206566  0.31660347     0.13960
C728        C  0.30018114  0.93420894  0.30574118    -0.20390
C729        C  0.34041531  0.90990204  0.30351611    -0.06910
C730        C  0.34543496  0.86267487  0.31373059     0.13950
C731        C  0.38697321  0.83333725  0.31139550    -0.23740
H732        H  0.31324830  0.80472224  0.33287400     0.15240
H733        H  0.29617918  0.97052476  0.29822003     0.15270
C734        C  0.22101811  0.93833424  0.31559359    -0.23690
H735        H  0.38375978  0.79618853  0.31925208     0.05480
H736        H  0.41388021  0.85200143  0.32115532     0.08700
H737        H  0.39544562  0.82876243  0.29203550     0.08700
H738        H  0.21031587  0.94889686  0.33396417     0.08690
H739        H  0.19633465  0.91449732  0.30682325     0.08690
H740        H  0.22281181  0.97263518  0.30496013     0.05460
C741        C  0.76326156  0.65834312  0.18195271    -0.20340
C742        C  0.77313557  0.68347340  0.16078070    -0.06910
C743        C  0.81596590  0.68319390  0.15191580     0.13960
C744        C  0.84827978  0.65707964  0.16446844    -0.20390
C745        C  0.83877006  0.63125942  0.18581990    -0.06910
C746        C  0.79522713  0.63227688  0.19470299     0.13950
C747        C  0.78141284  0.60714554  0.21765445    -0.23740
H748        H  0.73003021  0.65933832  0.18855557     0.15240
H749        H  0.88116428  0.65682178  0.15741337     0.15270
C750        C  0.82748510  0.71083507  0.12939009    -0.23690
H751        H  0.74662776  0.61426021  0.22196628     0.05480
H752        H  0.80094518  0.62039736  0.23318564     0.08700
H753        H  0.78522728  0.56702958  0.21579129     0.08700
H754        H  0.82001467  0.75034301  0.13194521     0.08690
H755        H  0.80823474  0.69653725  0.11389941     0.08690
H756        H  0.86261548  0.70713561  0.12494944     0.05460
C757        C  0.63740297  0.80389245  0.18362514    -0.20340
C758        C  0.66603847  0.81708613  0.16525379    -0.06910
C759        C  0.67578179  0.86695418  0.16147971     0.13960
C760        C  0.65331394  0.90300386  0.17489211    -0.20390
C761        C  0.62228030  0.88956260  0.19216171    -0.06910
C762        C  0.61587654  0.83942149  0.19737113     0.13950
C763        C  0.58656642  0.82309036  0.21757640    -0.23740
H764        H  0.63147304  0.76539669  0.18699239     0.15240
H765        H  0.65854489  0.94146245  0.17118769     0.15270
C766        C  0.70901187  0.88184066  0.14305771    -0.23690
H767        H  0.58740061  0.78271566  0.21990274     0.05480
H768        H  0.55243777  0.83358251  0.21380156     0.08700
H769        H  0.59723554  0.84022857  0.23481871     0.08700
H770        H  0.69895809  0.86857291  0.12490769     0.08690
H771        H  0.74116498  0.86563863  0.14776182     0.08690
H772        H  0.71268217  0.92225775  0.14232933     0.05460
C773        C  0.62659424  0.19677389  0.15051182    -0.20340
C774        C  0.67050344  0.20511667  0.15650390    -0.06910
C775        C  0.69041862  0.17228986  0.17323176     0.13960
C776        C  0.66423889  0.13954128  0.18647209    -0.20390
C777        C  0.61962189  0.13422566  0.18135216    -0.06910
C778        C  0.60222053  0.15986473  0.16120762     0.13950
C779        C  0.55812356  0.14884114  0.15020137    -0.23740
H780        H  0.60967805  0.22018880  0.13790969     0.15240
H781        H  0.67899202  0.11767573  0.20060672     0.15270
C782        C  0.73898132  0.16838145  0.17662580    -0.23690
H783        H  0.55441568  0.16549193  0.13204570     0.05480
H784        H  0.53167061  0.16411317  0.16148453     0.08700
H785        H  0.55416228  0.10868639  0.14787744     0.08700
H786        H  0.74825231  0.18182420  0.19487743     0.08690
H787        H  0.75709267  0.18853328  0.16260170     0.08690
H788        H  0.74915230  0.12944610  0.17487412     0.05460
C789        C  0.76415257  0.39561900  0.17383273    -0.20340
C790        C  0.77345337  0.34891947  0.16462406    -0.06910
C791        C  0.81633938  0.33030876  0.16631159     0.13960
C792        C  0.84873723  0.35866891  0.17751319    -0.20390
C793        C  0.83960669  0.40551003  0.18697962    -0.06910
C794        C  0.79645552  0.42425137  0.18492103     0.13950
C795        C  0.78398322  0.47481138  0.19352667    -0.23740
H796        H  0.73127586  0.40991487  0.17211246     0.15240
H797        H  0.88148185  0.34391946  0.17892168     0.15270
C798        C  0.82847890  0.28131649  0.15559686    -0.23690
H799        H  0.74983694  0.48432399  0.18868145     0.05480
H800        H  0.80549666  0.50242049  0.18507094     0.08700
H801        H  0.78652944  0.47690058  0.21348716     0.08700
H802        H  0.81994944  0.28046879  0.13610206     0.08690
H803        H  0.81091867  0.25178906  0.16507774     0.08690
H804        H  0.86392747  0.27370056  0.15734447     0.05460
C805        C  0.16326288  0.69260472  0.15327159    -0.20340
C806        C  0.20610811  0.67676533  0.15695643    -0.06910
C807        C  0.21446973  0.63719208  0.17255323     0.13960
C808        C  0.17963484  0.61438691  0.18423246    -0.20390
C809        C  0.13623892  0.63028039  0.18101888    -0.06910
C810        C  0.12809212  0.66996034  0.16490889     0.13950
C811        C  0.08303108  0.68986270  0.15993034    -0.23740
H812        H  0.15748123  0.72354962  0.14148241     0.15240
H813        H  0.18673720  0.58416851  0.19622902     0.15270
C814        C  0.26038187  0.62006639  0.17759965    -0.23690
H815        H  0.08362237  0.72120004  0.14723043     0.05480
H816        H  0.06805483  0.70321654  0.17695581     0.08700
H817        H  0.06251975  0.66103678  0.15151191     0.08700
H818        H  0.27989156  0.65077320  0.18511337     0.08690
H819        H  0.27568883  0.60670869  0.16067659     0.08690
H820        H  0.26122341  0.58964069  0.19082297     0.05460
C821        C  0.32974182  0.80278260  0.18865296    -0.20340
C822        C  0.30715334  0.81406215  0.16741651    -0.06910
C823        C  0.29724351  0.86343731  0.16213991     0.13960
C824        C  0.31379421  0.90083469  0.17719792    -0.20390
C825        C  0.33901721  0.88944459  0.19761983    -0.06910
C826        C  0.34546568  0.83973587  0.20390286     0.13950
C827        C  0.37044061  0.82449352  0.22616163    -0.23740
H828        H  0.33586155  0.76474618  0.19314665     0.15240
H829        H  0.30940915  0.93886447  0.17219462     0.15270
C830        C  0.27031684  0.87646206  0.14033764    -0.23690
H831        H  0.34949581  0.80094958  0.23752356     0.05480
H832        H  0.38085389  0.85605329  0.23744135     0.08700
H833        H  0.39982476  0.80328747  0.22079948     0.08700
H834        H  0.23768519  0.85929425  0.14173028     0.08690
H835        H  0.28667391  0.86290585  0.12373961     0.08690
H836        H  0.26570333  0.91668318  0.13874086     0.05460
C837        C  0.34584909  0.63197221  0.10840773    -0.20340
C838        C  0.33866375  0.68241625  0.10515468    -0.06910
C839        C  0.35720887  0.70514013  0.08467894     0.13960
C840        C  0.38296243  0.67710331  0.06861433    -0.20390
C841        C  0.38969680  0.62645969  0.07182347    -0.06910
C842        C  0.36932441  0.60355183  0.09166991     0.13950
C843        C  0.36833794  0.54895788  0.09504734    -0.23740
H844        H  0.33125504  0.61384166  0.12374071     0.15240
H845        H  0.39733928  0.69476171  0.05309140     0.15270
C846        C  0.34811258  0.75804381  0.07877602    -0.23690
H847        H  0.38473870  0.53970704  0.11232103     0.05480
H848        H  0.33395600  0.53655416  0.09597082     0.08700
H849        H  0.38361452  0.52831916  0.08007678     0.08700
H850        H  0.36316160  0.78246911  0.09243578     0.08690
H851        H  0.31239701  0.76460100  0.07810638     0.08690
H852        H  0.36179300  0.76825589  0.06096870     0.05460
C853        C  0.63643373  0.70283120  0.08343658    -0.20340
C854        C  0.64441780  0.68174725  0.10596356    -0.06910
C855        C  0.62475474  0.63649736  0.11160665     0.13960
C856        C  0.59938554  0.61227172  0.09405177    -0.20390
C857        C  0.59288476  0.63210766  0.07091232    -0.06910
C858        C  0.61107624  0.67893813  0.06583443     0.13950
C859        C  0.60369961  0.70502214  0.04220313    -0.23740
H860        H  0.65085362  0.73806495  0.07947196     0.15240
H861        H  0.58524243  0.57709515  0.09834953     0.15270
C862        C  0.62946164  0.61426017  0.13633602    -0.23690
H863        H  0.61702635  0.74278630  0.04253839     0.05480
H864        H  0.56823360  0.70792022  0.03840939     0.08700
H865        H  0.62043650  0.68521194  0.02734099     0.08700
H866        H  0.61790210  0.64070350  0.15022335     0.08690
H867        H  0.66399121  0.60470085  0.13997787     0.08690
H868        H  0.61003596  0.58023337  0.13805963     0.05460
C869        C  0.36219273  0.37873405  0.11140714    -0.20340
C870        C  0.33042374  0.34724292  0.10197262    -0.06910
C871        C  0.32807740  0.33943207  0.07694892     0.13960
C872        C  0.35679972  0.36450355  0.06175832    -0.20390
C873        C  0.38881186  0.39708502  0.07086445    -0.06910
C874        C  0.39180440  0.40319571  0.09634890     0.13950
C875        C  0.42689173  0.43319266  0.10821522    -0.23740
H876        H  0.36424069  0.38346869  0.13082712     0.15240
H877        H  0.35380383  0.35832307  0.04250118     0.15270
C878        C  0.29514752  0.30462400  0.06630748    -0.23690
H879        H  0.42428359  0.43314475  0.12821033     0.05480
H880        H  0.45877905  0.41739541  0.10343093     0.08700
H881        H  0.42547678  0.47162574  0.10225999     0.08700
H882        H  0.26172960  0.31694109  0.07107477     0.08690
H883        H  0.30069332  0.26728926  0.07357806     0.08690
H884        H  0.29747411  0.30261390  0.04632267     0.05460
C885        C  0.64929997  0.39830477  0.06523219    -0.20340
C886        C  0.60437975  0.40242688  0.06996831    -0.06910
C887        C  0.58717776  0.37789186  0.09015174     0.13960
C888        C  0.61494624  0.35001242  0.10493625    -0.20390
C889        C  0.65982830  0.34614399  0.10028533    -0.06910
C890        C  0.67720395  0.37059300  0.08005696     0.13950
C891        C  0.72453746  0.36708388  0.07307041    -0.23740
H892        H  0.66275976  0.41647432  0.04958828     0.15240
H893        H  0.60164204  0.33179671  0.12060345     0.15270
C894        C  0.53959796  0.38067936  0.09611250    -0.23690
H895        H  0.72711688  0.35317817  0.05425481     0.05480
H896        H  0.74351362  0.34183916  0.08467691     0.08700
H897        H  0.73955273  0.40396660  0.07409854     0.08700
H898        H  0.51981166  0.36796565  0.08048009     0.08690
H899        H  0.53139485  0.41922417  0.10059675     0.08690
H900        H  0.53121923  0.35776449  0.11193065     0.05460
C901        C  0.88290974  0.88374449  0.61398253    -0.20340
C902        C  0.84213092  0.86321025  0.60880726    -0.06910
C903        C  0.82507640  0.86644336  0.58517006     0.13960
C904        C  0.84874248  0.89152757  0.56749840    -0.20390
C905        C  0.88941772  0.91302289  0.57267445    -0.06910
C906        C  0.90698943  0.90825016  0.59633314     0.13950
C907        C  0.95148138  0.92724679  0.60325864    -0.23740
H908        H  0.89596812  0.88065128  0.63212836     0.15240
H909        H  0.83515554  0.89437499  0.54947512     0.15270
C910        C  0.78286754  0.84194220  0.57821576    -0.23690
H911        H  0.96073912  0.91680872  0.62194713     0.05480
H912        H  0.95191330  0.96783817  0.60250249     0.08700
H913        H  0.97645901  0.91163700  0.59093970     0.08700
H914        H  0.75521614  0.85875976  0.58808408     0.08690
H915        H  0.78471320  0.80230040  0.58247713     0.08690
H916        H  0.77591293  0.84554643  0.55861237     0.05460
C917        C  0.87299359  0.14888783  0.61608180    -0.20340
C918        C  0.83190505  0.16870773  0.61088627    -0.06910
C919        C  0.81620519  0.16822946  0.58695922     0.13960
C920        C  0.84203042  0.14718488  0.56876721    -0.20390
C921        C  0.88342274  0.12705078  0.57387444    -0.06910
C922        C  0.89919650  0.12843092  0.59803208     0.13950
C923        C  0.94387262  0.11002475  0.60522872    -0.23740
H924        H  0.88482218  0.14990825  0.63455135     0.15240
H925        H  0.82964522  0.14650116  0.55042577     0.15270
C926        C  0.77309316  0.19133546  0.58043556    -0.23690
H927        H  0.95128815  0.11777435  0.62451241     0.05480
H928        H  0.96923891  0.12836381  0.59428827     0.08700
H929        H  0.94588515  0.06971637  0.60280300     0.08700
H930        H  0.77295756  0.23046499  0.58599160     0.08690
H931        H  0.74616464  0.17202274  0.58962349     0.08690
H932        H  0.76674830  0.18955352  0.56069775     0.05460
C933        C  0.15151794  0.86406500  0.58794627    -0.20340
C934        C  0.13768152  0.87271923  0.61160661    -0.06910
C935        C  0.10193881  0.90411284  0.61583276     0.13960
C936        C  0.08012494  0.92521315  0.59617912    -0.20390
C937        C  0.09325204  0.91647023  0.57214640    -0.06910
C938        C  0.12995654  0.88528920  0.56811583     0.13950
C939        C  0.14710135  0.87356005  0.54325907    -0.23740
H940        H  0.17908780  0.83983219  0.58500209     0.15240
H941        H  0.05251486  0.94889874  0.59982050     0.15270
C942        C  0.08723576  0.91621072  0.64112711    -0.23690
H943        H  0.17617703  0.84923667  0.54392619     0.05480
H944        H  0.15699690  0.90774943  0.53405656     0.08700
H945        H  0.12180696  0.85417204  0.53256242     0.08700
H946        H  0.11468393  0.93249632  0.65148119     0.08690
H947        H  0.07604224  0.88260684  0.65035627     0.08690
H948        H  0.05981625  0.94289435  0.64120402     0.05460
C949        C  0.11608309  0.17288046  0.56789802    -0.20340
C950        C  0.09637509  0.12714600  0.57196678    -0.06910
C951        C  0.10442856  0.10278002  0.59412643     0.13960
C952        C  0.13086690  0.12517186  0.61155498    -0.20390
C953        C  0.14950433  0.17106354  0.60760544    -0.06910
C954        C  0.14246093  0.19518900  0.58552126     0.13950
C955        C  0.16329187  0.24389385  0.58044575    -0.23740
H956        H  0.11050378  0.19155302  0.55094152     0.15240
H957        H  0.13657356  0.10708366  0.62867094     0.15270
C958        C  0.08678394  0.05257059  0.59947325    -0.23690
H959        H  0.15533869  0.25706673  0.56200582     0.05480
H960        H  0.19926062  0.24042544  0.58197081     0.08700
H961        H  0.15161864  0.27178153  0.59356862     0.08700
H962        H  0.09716941  0.02671573  0.58508205     0.08690
H963        H  0.05070882  0.05375297  0.60067530     0.08690
H964        H  0.09912513  0.03813576  0.61693174     0.05460
C965        C  0.36598766  0.35631643  0.87252301    -0.20340
C966        C  0.32568289  0.33996319  0.88130225    -0.06910
C967        C  0.31350381  0.35281812  0.90507175     0.13960
C968        C  0.34146989  0.38191466  0.91923268    -0.20390
C969        C  0.38228487  0.39807858  0.91074281    -0.06910
C970        C  0.39441331  0.38487955  0.88689032     0.13950
C971        C  0.43821067  0.39798078  0.87693336    -0.23740
H972        H  0.37552237  0.34607125  0.85435785     0.15240
H973        H  0.33142376  0.39140013  0.93740370     0.15270
C974        C  0.27196927  0.33398344  0.91609417    -0.23690
H975        H  0.44319711  0.38290692  0.85848212     0.05480
H976        H  0.46352894  0.38215692  0.88890894     0.08700
H977        H  0.44167484  0.43836171  0.87596521     0.08700
H978        H  0.27150063  0.29335706  0.91516030     0.08690
H979        H  0.24324252  0.34888074  0.90638793     0.08690
H980        H  0.26891295  0.34492811  0.93535512     0.05460
C981        C  0.65573781  0.62850932  0.87910211    -0.20340
C982        C  0.65980376  0.67945813  0.88262135    -0.06910
C983        C  0.63404870  0.70219216  0.90078810     0.13960
C984        C  0.60381936  0.67429493  0.91373954    -0.20390
C985        C  0.59968003  0.62356237  0.91024346    -0.06910
C986        C  0.62660994  0.60028835  0.89295550     0.13950
C987        C  0.62573307  0.54561940  0.88968788    -0.23740
H988        H  0.67541486  0.61063786  0.86542263     0.15240
H989        H  0.58447070  0.69216139  0.92760386     0.15270
C990        C  0.63900441  0.75517781  0.90817721    -0.23690
H991        H  0.64955321  0.53298387  0.87592705     0.05480
H992        H  0.59277384  0.53455510  0.88367448     0.08700
H993        H  0.63370940  0.52733496  0.90702445     0.08700
H994        H  0.60883711  0.77571094  0.90354606     0.08690
H995        H  0.66726045  0.77334829  0.89975802     0.08690
H996        H  0.64430710  0.75749773  0.92799428     0.05460
C997        C  0.35895150  0.66190417  0.91979967    -0.20340
C998        C  0.37885617  0.61842928  0.91130129    -0.06910
C999        C  0.36751826  0.60123137  0.88789502     0.13960
C1000       C  0.33736957  0.62817470  0.87379306    -0.20390
C1001       C  0.31809186  0.67153552  0.88254355    -0.06910
C1002       C  0.32884542  0.68825626  0.90588754     0.13950
C1003       C  0.30828197  0.73399258  0.91626069    -0.23740
H1004       H  0.36705133  0.67581328  0.93760856     0.15240
H1005       H  0.32931424  0.61584290  0.85569894     0.15270
C1006       C  0.38617723  0.55433411  0.87782338    -0.23690
H1007       H  0.31924816  0.74111996  0.93507863     0.05480
H1008       H  0.27228218  0.73002797  0.91638464     0.08700
H1009       H  0.31712962  0.76625343  0.90524528     0.08700
H1010       H  0.37850586  0.52341118  0.89002001     0.08690
H1011       H  0.42202131  0.55765939  0.87588057     0.08690
H1012       H  0.37246845  0.54561616  0.85972937     0.05460
C1013       C  0.34344471  0.11368597  0.82646726    -0.20340
C1014       C  0.34485873  0.11611328  0.80117749    -0.06910
C1015       C  0.32347342  0.15465722  0.78912776     0.13960
C1016       C  0.30378514  0.19191967  0.80276825    -0.20390
C1017       C  0.30487412  0.19142182  0.82816804    -0.06910
C1018       C  0.32316713  0.15065029  0.84015979     0.13950
C1019       C  0.32106608  0.14566814  0.86720806    -0.23740
H1020       H  0.36013081  0.08390153  0.83554954     0.15240
H1021       H  0.28910414  0.22281237  0.79354533     0.15270
C1022       C  0.32387406  0.15814178  0.76196030    -0.23690
H1023       H  0.33476226  0.11007638  0.87329103     0.05480
H1024       H  0.28660409  0.14771115  0.87317805     0.08700
H1025       H  0.33999009  0.17507429  0.87617789     0.08700
H1026       H  0.30810904  0.12527573  0.75399016     0.08690
H1027       H  0.35793596  0.16043624  0.75536888     0.08690
H1028       H  0.30594715  0.19098567  0.75548562     0.05460
C1029       C  0.35789254  0.82746208  0.79275442    -0.20340
C1030       C  0.35113520  0.87776584  0.79613530    -0.06910
C1031       C  0.32052339  0.89445245  0.81327409     0.13960
C1032       C  0.29896708  0.85995867  0.82766916    -0.20390
C1033       C  0.30802461  0.80971344  0.82525052    -0.06910
C1034       C  0.33658067  0.79315208  0.80698744     0.13950
C1035       C  0.34444009  0.73934173  0.80224693    -0.23740
H1036       H  0.38129747  0.81505560  0.77940096     0.15240
H1037       H  0.27594349  0.87215567  0.84124309     0.15270
C1038       C  0.31218074  0.94832495  0.81708595    -0.23690
H1039       H  0.36582617  0.73328924  0.78636504     0.05480
H1040       H  0.31295181  0.72076256  0.79861353     0.08700
H1041       H  0.36062371  0.72213152  0.81800676     0.08700
H1042       H  0.29955597  0.96473912  0.80014077     0.08690
H1043       H  0.34290068  0.96694770  0.82237250     0.08690
H1044       H  0.28778007  0.95496463  0.83150939     0.05460
C1045       C  0.66169552  0.86025436  0.78898257    -0.20340
C1046       C  0.63936757  0.89660677  0.80186877    -0.06910
C1047       C  0.64046067  0.89673327  0.82736665     0.13960
C1048       C  0.66247482  0.85906720  0.83944546    -0.20390
C1049       C  0.68234376  0.82080411  0.82658891    -0.06910
C1050       C  0.68259438  0.82167755  0.80099171     0.13950
C1051       C  0.70147785  0.78023028  0.78616355    -0.23740
H1052       H  0.65954920  0.85977853  0.76943178     0.15240
H1053       H  0.66270606  0.85831568  0.85901467     0.15270
C1054       C  0.61731532  0.93574853  0.84184171    -0.23690
H1055       H  0.69475370  0.78494785  0.76659532     0.05480
H1056       H  0.68693860  0.74492899  0.79179045     0.08700
H1057       H  0.73733688  0.77860382  0.78835302     0.08700
H1058       H  0.58172610  0.93445551  0.83838007     0.08690
H1059       H  0.62982579  0.97227382  0.83678614     0.08690
H1060       H  0.62254007  0.93096492  0.86154150     0.05460
C1061       C  0.68094370  0.11325611  0.70109397    -0.20340
C1062       C  0.63876444  0.11973986  0.69134495    -0.06910
C1063       C  0.63373672  0.15049479  0.67083575     0.13960
C1064       C  0.67060011  0.17368554  0.66110521    -0.20390
C1065       C  0.71206038  0.16715667  0.67126360    -0.06910
C1066       C  0.71741372  0.13610189  0.69124983     0.13950
C1067       C  0.76185154  0.12603787  0.70192677    -0.23740
H1068       H  0.68583249  0.09006181  0.71667947     0.15240
H1069       H  0.66714132  0.19722583  0.64551038     0.15270
C1070       C  0.59027156  0.15894092  0.65875843    -0.23690
H1071       H  0.76035490  0.09926643  0.71692478     0.05480
H1072       H  0.77609381  0.16035935  0.70921087     0.08700
H1073       H  0.78368496  0.11071663  0.68781369     0.08700
H1074       H  0.56761004  0.17749318  0.67145471     0.08690
H1075       H  0.57638259  0.12346232  0.65267804     0.08690
H1076       H  0.59318704  0.18268944  0.64262911     0.05460
C1077       C  0.64096544  0.86120364  0.67520507    -0.20340
C1078       C  0.64651308  0.90395178  0.68927263    -0.06910
C1079       C  0.68924977  0.92428405  0.69126204     0.13960
C1080       C  0.72436781  0.90051493  0.68009344    -0.20390
C1081       C  0.71868836  0.85742424  0.66686761    -0.06910
C1082       C  0.67659663  0.83780274  0.66398148     0.13950
C1083       C  0.66942940  0.79247753  0.64893598    -0.23740
H1084       H  0.60877811  0.84548814  0.67324661     0.15240
H1085       H  0.75695082  0.91540709  0.68187494     0.15270
C1086       C  0.69904816  0.97138073  0.70463416    -0.23690
H1087       H  0.63448108  0.78212726  0.64824299     0.05480
H1088       H  0.68811558  0.76138383  0.65668469     0.08700
H1089       H  0.68063425  0.79902317  0.63018965     0.08700
H1090       H  0.69369470  0.96670900  0.72428855     0.08690
H1091       H  0.67829426  0.00137714  0.69747887     0.08690
H1092       H  0.73349516  0.98286553  0.70244251     0.05460
C1093       C  0.30050985  0.89828015  0.70274871    -0.20340
C1094       C  0.34079405  0.89381866  0.69071765    -0.06910
C1095       C  0.34131179  0.87076981  0.66767324     0.13960
C1096       C  0.30191724  0.85304217  0.65765333    -0.20390
C1097       C  0.26206720  0.85850533  0.66983998    -0.06910
C1098       C  0.26142260  0.88260748  0.69241115     0.13950
C1099       C  0.21994996  0.89456003  0.70582439    -0.23740
H1100       H  0.29885092  0.91576856  0.72033945     0.15240
H1101       H  0.30212306  0.83494094  0.64019430     0.15270
C1102       C  0.38260037  0.86563186  0.65326230    -0.23690
H1103       H  0.21832560  0.93461701  0.70931280     0.05480
H1104       H  0.21986329  0.87518232  0.72339157     0.08700
H1105       H  0.19005060  0.88477957  0.69569639     0.08700
H1106       H  0.40640943  0.84251459  0.66318859     0.08690
H1107       H  0.39675132  0.90233669  0.64994496     0.08690
H1108       H  0.37657453  0.84800981  0.63544996     0.05460
C1109       C  0.34485103  0.15215789  0.67747909    -0.20340
C1110       C  0.33724371  0.10989471  0.69134607    -0.06910
C1111       C  0.29376526  0.09173586  0.69288642     0.13960
C1112       C  0.25984009  0.11739690  0.68154291    -0.20390
C1113       C  0.26772513  0.16006730  0.66854572    -0.06910
C1114       C  0.31059354  0.17728613  0.66603659     0.13950
C1115       C  0.32000209  0.22219418  0.65131585    -0.23740
H1116       H  0.37766408  0.16619646  0.67580039     0.15240
H1117       H  0.22659791  0.10441555  0.68300211     0.15270
C1118       C  0.28201520  0.04522775  0.70598252    -0.23690
H1119       H  0.35536377  0.23067340  0.65102014     0.05480
H1120       H  0.30249338  0.25424401  0.65905684     0.08700
H1121       H  0.30892140  0.21627761  0.63242213     0.08700
H1122       H  0.28796805  0.04951482  0.72564830     0.08690
H1123       H  0.30123625  0.01401533  0.69866582     0.08690
H1124       H  0.24703074  0.03585647  0.70374948     0.05460
C1125       C  0.62868691  0.37181142  0.87041123    -0.20340
C1126       C  0.66563561  0.34878817  0.88029155    -0.06910
C1127       C  0.67435920  0.35442016  0.90509212     0.13960
C1128       C  0.64579647  0.38231427  0.91945137    -0.20390
C1129       C  0.60765002  0.40456504  0.90997540    -0.06910
C1130       C  0.59971097  0.39963986  0.88478545     0.13950
C1131       C  0.56020693  0.42157342  0.87285914    -0.23740
H1132       H  0.62207309  0.36713598  0.85130203     0.15240
H1133       H  0.65328699  0.38579611  0.93850120     0.15270
C1134       C  0.71287976  0.32930207  0.91668224    -0.23690
H1135       H  0.55869158  0.41278985  0.85327400     0.05480
H1136       H  0.56040132  0.46189999  0.87476237     0.08700
H1137       H  0.53069202  0.40670878  0.88136485     0.08700
H1138       H  0.74359403  0.34293872  0.90868580     0.08690
H1139       H  0.71064450  0.28912900  0.91374498     0.08690
H1140       H  0.71428568  0.33620447  0.93644614     0.05460
C1141       C  0.68833122  0.15753910  0.82478367    -0.20340
C1142       C  0.67407038  0.20653521  0.82403650    -0.06910
C1143       C  0.64034617  0.22004537  0.80796056     0.13960
C1144       C  0.61949154  0.18373427  0.79447651    -0.20390
C1145       C  0.63154048  0.13431854  0.79640045    -0.06910
C1146       C  0.66727588  0.12104562  0.81105862     0.13950
C1147       C  0.68195135  0.06858775  0.81290384    -0.23740
H1148       H  0.71536397  0.14778451  0.83647394     0.15240
H1149       H  0.59245611  0.19377078  0.78281312     0.15270
C1150       C  0.62655723  0.27272427  0.80458248    -0.23690
H1151       H  0.70982024  0.06443384  0.82558529     0.05480
H1152       H  0.69234515  0.05503817  0.79488387     0.08700
H1153       H  0.65469334  0.04580106  0.81948235     0.08700
H1154       H  0.65515532  0.29519059  0.79955161     0.08690
H1155       H  0.61194662  0.28744493  0.82139822     0.08690
H1156       H  0.60174617  0.27654584  0.79005939     0.05460
C1157       C  0.15965490  0.37089521  0.80093402    -0.20340
C1158       C  0.11746963  0.35611499  0.80725994    -0.06910
C1159       C  0.11201610  0.31900845  0.82458739     0.13960
C1160       C  0.14916109  0.29948609  0.83618998    -0.20390
C1161       C  0.19107845  0.31719423  0.83098660    -0.06910
C1162       C  0.19643459  0.35211177  0.81258189     0.13950
C1163       C  0.24095192  0.36966868  0.80511874    -0.23740
H1164       H  0.16367408  0.39923804  0.78747520     0.15240
H1165       H  0.14549812  0.27128713  0.84971782     0.15270
C1166       C  0.06729184  0.30159604  0.83141600    -0.23690
H1167       H  0.23905062  0.39582191  0.78985679     0.05480
H1168       H  0.26125823  0.33802281  0.79930419     0.08700
H1169       H  0.25713811  0.38867971  0.82043319     0.08700
H1170       H  0.05064736  0.28618039  0.81526871     0.08690
H1171       H  0.04775684  0.33266839  0.83862501     0.08690
H1172       H  0.06883139  0.27268759  0.84542654     0.05460
C1173       C  0.10665087  0.67117001  0.84133459    -0.20340
C1174       C  0.09994400  0.67334657  0.81623612    -0.06910
C1175       C  0.13079905  0.69746813  0.80184251     0.13960
C1176       C  0.16943114  0.71436677  0.81239566    -0.20390
C1177       C  0.17768547  0.70957894  0.83731550    -0.06910
C1178       C  0.14447208  0.69033991  0.85216628     0.13950
C1179       C  0.14745239  0.68964719  0.87931265    -0.23740
H1180       H  0.08287797  0.65271401  0.85247379     0.15240
H1181       H  0.19432625  0.72919612  0.80073231     0.15270
C1182       C  0.12433340  0.70280235  0.77506514    -0.23690
H1183       H  0.11822535  0.70790560  0.88704376     0.05480
H1184       H  0.17622130  0.70951901  0.88638241     0.08700
H1185       H  0.14863538  0.65119714  0.88570486     0.08700
H1186       H  0.09400737  0.72406766  0.77191279     0.08690
H1187       H  0.12170227  0.66624502  0.76633235     0.08690
H1188       H  0.15165485  0.72265823  0.76644262     0.05460
C1189       C  0.87712350  0.68247971  0.83618255    -0.20340
C1190       C  0.87484489  0.66822150  0.81179565    -0.06910
C1191       C  0.83500838  0.67267118  0.79917439     0.13960
C1192       C  0.79816348  0.68985727  0.81133354    -0.20390
C1193       C  0.79987121  0.70241069  0.83588695    -0.06910
C1194       C  0.83998551  0.70025511  0.84832914     0.13950
C1195       C  0.84341592  0.71648139  0.87424803    -0.23740
H1196       H  0.90746111  0.67761637  0.84597604     0.15240
H1197       H  0.76735851  0.69248942  0.80176201     0.15270
C1198       C  0.83059162  0.65645952  0.77321516    -0.23690
H1199       H  0.87724590  0.71280653  0.88122115     0.05480
H1200       H  0.82173688  0.69384728  0.88562057     0.08700
H1201       H  0.83351664  0.75551900  0.87584589     0.08700
H1202       H  0.83641792  0.61645776  0.77177348     0.08690
H1203       H  0.85453565  0.67616906  0.76192412     0.08690
H1204       H  0.79750138  0.66404672  0.76591268     0.05460
C1205       C  0.83951935  0.30848936  0.84017427    -0.20340
C1206       C  0.79840972  0.31678607  0.82969535    -0.06910
C1207       C  0.79536946  0.34052968  0.80718484     0.13960
C1208       C  0.83327200  0.35747534  0.79618038    -0.20390
C1209       C  0.87418945  0.35171098  0.80714375    -0.06910
C1210       C  0.87763772  0.32621131  0.82915216     0.13950
C1211       C  0.92115149  0.31970972  0.84135331    -0.23740
H1212       H  0.84162218  0.28932018  0.85722111     0.15240
H1213       H  0.83072912  0.37823105  0.77958221     0.15270
C1214       C  0.75192419  0.34963827  0.79514730    -0.23690
H1215       H  0.91820553  0.29894166  0.85845175     0.05480
H1216       H  0.93546627  0.35604011  0.84560729     0.08700
H1217       H  0.94353678  0.29929537  0.82918674     0.08700
H1218       H  0.73062560  0.37148172  0.80731308     0.08690
H1219       H  0.73593125  0.31424937  0.79090067     0.08690
H1220       H  0.75546566  0.37006464  0.77798365     0.05460
C1221       C  0.85643199  0.69951844  0.66570553    -0.20340
C1222       C  0.84552658  0.74430706  0.67649636    -0.06910
C1223       C  0.86063130  0.75482722  0.70008325     0.13960
C1224       C  0.88470357  0.71924974  0.71270127    -0.20390
C1225       C  0.89425770  0.67336075  0.70232944    -0.06910
C1226       C  0.88056768  0.66390577  0.67817180     0.13950
C1227       C  0.89211385  0.61724048  0.66489993    -0.23740
H1228       H  0.84575860  0.69236651  0.64734444     0.15240
H1229       H  0.89566397  0.72720891  0.73091389     0.15270
C1230       C  0.85267784  0.80407890  0.71170260    -0.23690
H1231       H  0.88229303  0.61866344  0.64559444     0.05480
H1232       H  0.87487574  0.58572955  0.67298324     0.08700
H1233       H  0.92790257  0.61115943  0.66555014     0.08700
H1234       H  0.81727099  0.81022361  0.71430614     0.08690
H1235       H  0.86600956  0.83341565  0.70008377     0.08690
H1236       H  0.86863892  0.80689445  0.72967994     0.05460
C1237       C  0.09444291  0.72176901  0.71316460    -0.20340
C1238       C  0.08455974  0.67687793  0.70201419    -0.06910
C1239       C  0.09635755  0.66986664  0.67745203     0.13960
C1240       C  0.11997336  0.70639946  0.66549496    -0.20390
C1241       C  0.13245119  0.74957501  0.67735474    -0.06910
C1242       C  0.11872130  0.75782320  0.70135454     0.13950
C1243       C  0.12878792  0.80489897  0.71448598    -0.23740
H1244       H  0.08370193  0.72849041  0.73140774     0.15240
H1245       H  0.12927741  0.70105153  0.64679853     0.15270
C1246       C  0.08308572  0.62500655  0.66333357    -0.23690
H1247       H  0.11328546  0.80630970  0.73256718     0.05480
H1248       H  0.11658330  0.83654306  0.70388704     0.08700
H1249       H  0.16441197  0.80817418  0.71725915     0.08700
H1250       H  0.04732851  0.61965115  0.66472450     0.08690
H1251       H  0.10067248  0.59244717  0.67024429     0.08690
H1252       H  0.09121014  0.62829529  0.64388518     0.05460
C1253       C  0.07976603  0.30510299  0.70077692    -0.20340
C1254       C  0.10113333  0.34736928  0.70903584    -0.06910
C1255       C  0.14608610  0.35325996  0.70398909     0.13960
C1256       C  0.16738974  0.31867032  0.68937165    -0.20390
C1257       C  0.14533602  0.27795145  0.67996293    -0.06910
C1258       C  0.10131698  0.27005409  0.68650271     0.13950
C1259       C  0.07725058  0.22401303  0.67943519    -0.23740
H1260       H  0.04566558  0.29992357  0.70508707     0.15240
H1261       H  0.20148580  0.32370767  0.68499814     0.15270
C1262       C  0.17233352  0.39491185  0.71446331    -0.23690
H1263       H  0.04489775  0.22200297  0.68829720     0.05480
H1264       H  0.09637295  0.19134979  0.68501076     0.08700
H1265       H  0.07133790  0.22269393  0.65972216     0.08700
H1266       H  0.16836222  0.39609165  0.73438236     0.08690
H1267       H  0.16176448  0.43018506  0.70650181     0.08690
H1268       H  0.20764507  0.39065106  0.71059762     0.05460
C1269       C  0.84842041  0.27176510  0.70279099    -0.20340
C1270       C  0.83518499  0.28483115  0.67937911    -0.06910
C1271       C  0.84961405  0.32944226  0.66947726     0.13960
C1272       C  0.87772437  0.35906975  0.68295966    -0.20390
C1273       C  0.89101420  0.34641460  0.70645504    -0.06910
C1274       C  0.87608959  0.30203714  0.71652168     0.13950
C1275       C  0.88807755  0.28691306  0.74179769    -0.23740
H1276       H  0.83758873  0.23723418  0.71019847     0.15240
H1277       H  0.88871147  0.39314720  0.67510096     0.15270
C1278       C  0.83514053  0.34782346  0.64507233    -0.23690
H1279       H  0.87182946  0.25229640  0.74703127     0.05480
H1280       H  0.87790179  0.31580088  0.75475522     0.08700
H1281       H  0.92378831  0.28098134  0.74317670     0.08700
H1282       H  0.81025730  0.32429989  0.63636402     0.08690
H1283       H  0.86374305  0.35031177  0.63292495     0.08690
H1284       H  0.82045294  0.38484249  0.64711386     0.05460
loop_ 
_geom_bond_atom_site_label_1 
_geom_bond_atom_site_label_2 
_geom_bond_distance 
_geom_bond_site_symmetry_2 
_ccdc_geom_bond_type 
O1          Zr13   2.401       .  S
O1            C3   1.280       .  A
O2          Zr39   2.452       .  S
O2            C3   1.291       .  A
C3         C1209   1.467       .  S
O4          Zr16   2.428       .  S
O4            C6   1.284       .  A
O5          Zr40   2.442       .  S
O5            C6   1.291       .  A
C6         C1225   1.491       .  S
O7          Zr16   2.415       .  S
O7            C9   1.284       .  A
O8          Zr39   2.443       .  S
O8            C9   1.290       .  A
C9         C1273   1.483       .  S
O10         Zr13   2.402       .  S
O10          C12   1.280       .  A
O11         Zr40   2.457       .  S
O11          C12   1.292       .  A
C12        C1190   1.466       .  S
Zr13         O14   2.434       .  S
Zr13         O15   2.435       .  S
Zr13         O19   2.363       .  S
Zr13         O20   2.370       .  S
Zr13         O43   2.361       .  S
Zr13         O45   2.364       .  S
O14          H57   0.990       .  S
O15          H56   0.990       .  S
O15          H60   0.990       .  S
Zr16         O17   2.436       .  S
Zr16         O18   2.436       .  S
Zr16         O20   2.359       .  S
Zr16         O19   2.364       .  S
Zr16         O44   2.366       .  S
Zr16         O46   2.360       .  S
O17          H58   0.990       .  S
O17          H61   0.990       .  S
O18          H51   0.990       .  S
O19         Zr39   2.382       .  S
O20         Zr40   2.385       .  S
O20          H47   0.964       .  S
O21         Zr33   2.407       .  S
O21          C23   1.281       .  A
O22         Zr40   2.456   1_455  S
O22          C23   1.293       .  A
C23        C1174   1.475       .  S
O24         Zr36   2.431       .  S
O24          C26   1.286       .  A
O25         Zr39   2.432   1_455  S
O25          C26   1.289       .  A
C26        C1254   1.482       .  S
O27         Zr36   2.438       .  S
O27          C29   1.287       .  A
O28         Zr40   2.441   1_455  S
O28          C29   1.291       .  A
C29        C1238   1.491       .  S
O30         Zr33   2.400       .  S
O30          C32   1.281       .  A
O31         Zr39   2.454   1_455  S
O31          C32   1.291       .  A
C32        C1158   1.473       .  S
Zr33         O34   2.438       .  S
Zr33         O35   2.434       .  S
Zr33         O41   2.372       .  S
Zr33         O42   2.362       .  S
Zr33         O45   2.367   1_455  S
Zr33         O43   2.361   1_455  S
O34          H54   0.990       .  S
O34          H59   0.990       .  S
O35          H55   0.990       .  S
Zr36         O37   2.434       .  S
Zr36         O38   2.434       .  S
Zr36         O42   2.361       .  S
Zr36         O41   2.369       .  S
Zr36         O46   2.363   1_455  S
Zr36         O44   2.368   1_455  S
O37          H53   0.990       .  S
O38          H52   0.990       .  S
O38          H62   0.990       .  S
Zr39         O42   2.382   1_655  S
Zr39         O44   2.395       .  S
Zr39         O45   2.394       .  S
Zr40         O41   2.390   1_655  S
Zr40         O43   2.388       .  S
Zr40         O46   2.388       .  S
O41          H49   0.966       .  S
O44          H48   0.966       .  S
O45          H50   0.966       .  S
C63        C1126   1.490       .  S
C63          C64   1.409       .  A
C63          C68   1.403       .  A
C64          C65   1.410       .  A
C64          H69   1.083       .  S
C65        C1206   1.476       .  S
C65          C66   1.397       .  A
C66          C67   1.395       .  A
C66          H70   1.085       .  S
C67        C1142   1.475       .  S
C67          C68   1.404       .  A
C68          H71   1.084       .  S
O72         Zr84   2.405       .  S
O72          C74   1.281       .  A
O73        Zr110   2.443       .  S
O73          C74   1.288       .  A
C74        C1145   1.470       .  S
O75         Zr87   2.408       .  S
O75          C77   1.282       .  A
O76        Zr111   2.429   1_565  S
O76          C77   1.286       .  A
C77        C1030   1.464       .  S
O78         Zr87   2.405       .  S
O78          C80   1.280       .  A
O79        Zr110   2.435   1_565  S
O79          C80   1.287       .  A
C80        C1046   1.463       .  S
O81         Zr84   2.407       .  S
O81          C83   1.281       .  A
O82        Zr111   2.438       .  S
O82          C83   1.288       .  A
C83        C1014   1.466       .  S
Zr84         O85   2.434       .  S
Zr84         O86   2.436       .  S
Zr84         O90   2.364       .  S
Zr84         O91   2.363       .  S
Zr84        O114   2.367       .  S
Zr84        O116   2.366       .  S
O85         H128   0.990       .  S
O86         H127   0.990       .  S
O86         H131   0.990       .  S
Zr87         O88   2.435       .  S
Zr87         O89   2.437       .  S
Zr87         O91   2.363   1_565  S
Zr87         O90   2.368   1_565  S
Zr87        O115   2.365       .  S
Zr87        O117   2.364       .  S
O88         H129   0.990       .  S
O88         H132   0.990       .  S
O89         H122   0.990       .  S
O90        Zr110   2.369       .  S
O91        Zr111   2.369       .  S
O91         H118   0.966       .  S
O92        Zr104   2.460       .  S
O92          C94   1.292       .  A
O93        Zr111   2.400       .  S
O93          C94   1.280       .  A
C94        C1110   1.495       .  S
O95        Zr107   2.478       .  S
O95          C97   1.296       .  A
O96        Zr110   2.397   1_565  S
O96          C97   1.280       .  A
C97        C1078   1.499       .  S
O98        Zr107   2.484       .  S
O98         C100   1.295       .  A
O99        Zr111   2.392   1_565  S
O99         C100   1.283       .  A
C100       C1094   1.500       .  S
O101       Zr104   2.457       .  S
O101        C103   1.290       .  A
O102       Zr110   2.405       .  S
O102        C103   1.285       .  A
C103       C1062   1.498       .  S
Zr104       O105   2.435       .  S
Zr104       O106   2.434       .  S
Zr104       O112   2.369       .  S
Zr104       O113   2.374       .  S
Zr104       O116   2.370       .  S
Zr104       O114   2.377       .  S
O105        H125   0.990       .  S
O105        H130   0.990       .  S
O106        H126   0.990       .  S
Zr107       O108   2.434       .  S
Zr107       O109   2.434       .  S
Zr107       O113   2.379   1_565  S
Zr107       O112   2.377   1_565  S
Zr107       O117   2.377       .  S
Zr107       O115   2.380       .  S
O108        H124   0.990       .  S
O109        H123   0.990       .  S
O109        H133   0.990       .  S
Zr110       O113   2.390       .  S
Zr110       O115   2.384   1_545  S
Zr110       O116   2.379       .  S
Zr111       O112   2.392       .  S
Zr111       O114   2.372       .  S
Zr111       O117   2.380   1_545  S
O112        H120   0.966       .  S
O115        H119   0.966       .  S
O116        H121   0.966       .  S
C134       C1177   1.493       .  S
C134        C135   1.404       .  A
C134        C139   1.417       .  A
C135        C136   1.392       .  A
C135        H140   1.084       .  S
C136       C1033   1.471       .  S
C136        C137   1.398       .  A
C137        C138   1.399       .  A
C137        H141   1.084       .  S
C138       C1001   1.485       .  S
C138        C139   1.410       .  A
C139        H142   1.083       .  S
C143       C1193   1.477       .  S
C143        C144   1.394       .  A
C143        C148   1.412       .  A
C144        C145   1.390       .  A
C144        H149   1.084       .  S
C145       C1049   1.476       .  S
C145        C146   1.404       .  A
C146        C147   1.409       .  A
C146        H150   1.084       .  S
C147        C982   1.501       .  S
C147        C148   1.415       .  A
C148        H151   1.083       .  S
C152       C1161   1.476       .  S
C152        C153   1.394       .  A
C152        C157   1.406       .  A
C153        C154   1.399       .  A
C153        H158   1.085       .  S
C154       C1017   1.483       .  S
C154        C155   1.411       .  A
C155        C156   1.409       .  A
C155        H159   1.083       .  S
C156        C966   1.495       .  S
C156        C157   1.407       .  A
C157        H160   1.083       .  S
C161       C1113   1.472       .  S
C161        C162   1.401       .  A
C161        C166   1.399       .  A
C162        C163   1.404       .  A
C162        H167   1.084       .  S
C163       C1257   1.482       .  S
C163        C164   1.402       .  A
C164        C165   1.400       .  A
C164        H168   1.083       .  S
C165        C953   1.472       .  S
C165        C166   1.401       .  A
C166        H169   1.084       .  S
C170        C934   1.478       .  S
C170        C171   1.402       .  A
C170        C175   1.405       .  A
C171        C172   1.400       .  A
C171        H176   1.084       .  S
C172       C1241   1.483       .  S
C172        C173   1.404       .  A
C173        C174   1.406       .  A
C173        H177   1.084       .  S
C174       C1097   1.483       .  S
C174        C175   1.405       .  A
C175        H178   1.084       .  S
C179       C1065   1.475       .  S
C179        C180   1.404       .  A
C179        C184   1.403       .  A
C180        C181   1.401       .  A
C180        H185   1.084       .  S
C181       C1270   1.478       .  S
C181        C182   1.398       .  A
C182        C183   1.399       .  A
C182        H186   1.085       .  S
C183        C918   1.475       .  S
C183        C184   1.402       .  A
C184        H187   1.084       .  S
C188        C902   1.482       .  S
C188        C189   1.403       .  A
C188        C193   1.403       .  A
C189        C190   1.401       .  A
C189        H194   1.084       .  S
C190       C1222   1.481       .  S
C190        C191   1.404       .  A
C191        C192   1.403       .  A
C191        H195   1.084       .  S
C192       C1081   1.477       .  S
C192        C193   1.402       .  A
C193        H196   1.083       .  S
O197       Zr209   2.423       .  S
O197        C199   1.285       .  A
O198       Zr235   2.474       .  S
O198        C199   1.296       .  A
C199        C985   1.492       .  S
O200       Zr212   2.426   1_554  S
O200        C202   1.285       .  A
O201       Zr236   2.461       .  S
O201        C202   1.294       .  A
C202        C886   1.489       .  S
O203       Zr212   2.422       .  S
O203        C205   1.286       .  A
O204       Zr235   2.477       .  S
O204        C205   1.296       .  A
C205       C1129   1.512       .  S
O206       Zr209   2.428   1_554  S
O206        C208   1.285       .  A
O207       Zr236   2.454       .  S
O207        C208   1.294       .  A
C208        C857   1.499       .  S
Zr209       O210   2.434       .  S
Zr209       O211   2.436       .  S
Zr209       O215   2.366       .  S
Zr209       O216   2.366   1_556  S
Zr209       O239   2.366   1_556  S
Zr209       O241   2.372       .  S
O210        H253   0.990       .  S
O211        H252   0.990       .  S
O211        H256   0.990       .  S
Zr212       O213   2.437       .  S
Zr212       O214   2.436       .  S
Zr212       O216   2.369   1_556  S
Zr212       O215   2.365       .  S
Zr212       O240   2.372       .  S
Zr212       O242   2.369   1_556  S
O213        H254   0.990   1_556  S
O213        H257   0.990       .  S
O214        H247   0.990       .  S
O215       Zr235   2.390       .  S
O216       Zr236   2.395       .  S
O216        H243   0.966       .  S
O217       Zr229   2.442   1_554  S
O217        C219   1.288       .  A
O218       Zr236   2.463       .  S
O218        C219   1.295       .  A
C219        C841   1.496       .  S
O220       Zr232   2.424       .  S
O220        C222   1.286       .  A
O221       Zr235   2.478       .  S
O221        C222   1.297       .  A
C222        C969   1.508       .  S
O223       Zr232   2.426   1_554  S
O223        C225   1.286       .  A
O224       Zr236   2.463       .  S
O224        C225   1.294       .  A
C225        C873   1.508       .  S
O226       Zr229   2.415       .  S
O226        C228   1.285       .  A
O227       Zr235   2.471       .  S
O227        C228   1.296       .  A
C228        C998   1.501       .  S
Zr229       O230   2.436       .  S
Zr229       O231   2.435       .  S
Zr229       O237   2.364   1_556  S
Zr229       O238   2.370       .  S
Zr229       O241   2.375       .  S
Zr229       O239   2.362   1_556  S
O230        H250   0.990   1_556  S
O230        H255   0.990       .  S
O231        H251   0.990   1_556  S
Zr232       O233   2.434       .  S
Zr232       O234   2.434       .  S
Zr232       O238   2.364       .  S
Zr232       O237   2.370   1_556  S
Zr232       O242   2.367   1_556  S
Zr232       O240   2.372       .  S
O233        H249   0.990       .  S
O234        H248   0.990   1_556  S
O234        H258   0.990       .  S
Zr235       O238   2.393       .  S
Zr235       O240   2.399       .  S
Zr235       O241   2.404       .  S
Zr236       O237   2.390       .  S
Zr236       O239   2.390       .  S
Zr236       O242   2.392       .  S
O237        H245   0.966       .  S
O240        H244   0.966       .  S
O241        H246   0.966       .  S
C259        C838   1.502       .  S
C259        C260   1.414       .  A
C259        C264   1.410       .  A
C260        C261   1.411       .  A
C260        H265   1.081       .  S
C261        C822   1.479       .  S
C261        C262   1.396       .  A
C262        C263   1.396       .  A
C262        H266   1.085       .  S
C263        C806   1.476       .  S
C263        C264   1.402       .  A
C264        H267   1.084       .  S
C268        C790   1.481       .  S
C268        C269   1.406       .  A
C268        C273   1.400       .  A
C269        C270   1.412       .  A
C269        H274   1.081       .  S
C270        C774   1.513       .  S
C270        C271   1.417       .  A
C271        C272   1.403       .  A
C271        H275   1.081       .  S
C272        C889   1.488       .  S
C272        C273   1.397       .  A
C273        H276   1.084       .  S
C277        C742   1.471       .  S
C277        C278   1.402       .  A
C277        C282   1.399       .  A
C278        C279   1.404       .  A
C278        H283   1.084       .  S
C279        C854   1.485       .  S
C279        C280   1.405       .  A
C280        C281   1.406       .  A
C280        H284   1.084       .  S
C281        C758   1.474       .  S
C281        C282   1.398       .  A
C282        H285   1.084       .  S
O286       Zr298   2.404       .  S
O286        C288   1.280       .  A
O287       Zr324   2.456   1_565  S
O287        C288   1.291       .  A
C288        C825   1.471       .  S
O289       Zr301   2.432       .  S
O289        C291   1.287       .  A
O290       Zr325   2.425   1_565  S
O290        C291   1.287       .  A
C291        C678   1.482       .  S
O292       Zr301   2.439       .  S
O292        C294   1.286       .  A
O293       Zr324   2.407   1_565  S
O293        C294   1.286       .  A
C294        C729   1.483       .  S
O295       Zr298   2.418       .  S
O295        C297   1.283       .  A
O296       Zr325   2.447   1_565  S
O296        C297   1.289       .  A
C297        C761   1.472       .  S
Zr298       O299   2.432       .  S
Zr298       O300   2.434       .  S
Zr298       O304   2.366       .  S
Zr298       O305   2.368       .  S
Zr298       O328   2.362   1_565  S
Zr298       O330   2.369   1_565  S
O299        H342   0.991       .  S
O300        H341   0.990       .  S
O300        H345   0.990       .  S
Zr301       O302   2.435       .  S
Zr301       O303   2.436       .  S
Zr301       O305   2.368       .  S
Zr301       O304   2.369       .  S
Zr301       O329   2.361   1_565  S
Zr301       O331   2.369   1_565  S
O302        H343   0.990       .  S
O302        H346   0.990       .  S
O303        H336   0.990       .  S
O304       Zr324   2.376   1_565  S
O305       Zr325   2.387   1_565  S
O305        H332   0.965       .  S
O306       Zr318   2.406       .  S
O306        C308   1.278       .  A
O307       Zr325   2.460       .  S
O307        C308   1.292       .  A
C308        C777   1.495       .  S
O309       Zr321   2.438       .  S
O309        C311   1.289       .  A
O310       Zr324   2.422       .  S
O310        C311   1.287       .  A
C311        C710   1.478       .  S
O312       Zr321   2.437       .  S
O312        C314   1.288       .  A
O313       Zr325   2.418       .  S
O313        C314   1.285       .  A
C314        C697   1.484       .  S
O315       Zr318   2.417       .  S
O315        C317   1.276       .  A
O316       Zr324   2.445       .  S
O316        C317   1.283       .  A
C317        C662   1.497       .  S
Zr318       O319   2.440       .  S
Zr318       O320   2.434       .  S
Zr318       O326   2.363       .  S
Zr318       O327   2.350       .  S
Zr318       O330   2.374       .  S
Zr318       O328   2.376       .  S
O319        H339   0.990       .  S
O319        H344   0.989       .  S
O320        H340   0.990       .  S
Zr321       O322   2.434       .  S
Zr321       O323   2.435       .  S
Zr321       O327   2.358       .  S
Zr321       O326   2.377       .  S
Zr321       O331   2.363       .  S
Zr321       O329   2.370       .  S
O322        H338   0.990       .  S
O323        H337   0.990       .  S
O323        H347   0.990       .  S
Zr324       O327   2.383       .  S
Zr324       O329   2.399       .  S
Zr324       O330   2.392       .  S
Zr325       O326   2.390       .  S
Zr325       O328   2.381       .  S
Zr325       O331   2.393       .  S
O326        H334   0.966       .  S
O329        H333   0.966       .  S
O330        H335   0.966       .  S
O348       Zr360   2.438   1_455  S
O348        C350   1.286       .  A
O349       Zr386   2.431       .  S
O349        C350   1.290       .  A
C350        C809   1.499       .  S
O351       Zr363   2.418       .  S
O351        C353   1.283       .  A
O352       Zr387   2.441       .  S
O352        C353   1.288       .  A
C353        C614   1.465       .  S
O354       Zr363   2.413   1_455  S
O354        C356   1.282       .  A
O355       Zr386   2.435       .  S
O355        C356   1.287       .  A
C356        C601   1.463       .  S
O357       Zr360   2.448       .  S
O357        C359   1.290       .  A
O358       Zr387   2.412       .  S
O358        C359   1.283       .  A
C359        C745   1.493       .  S
Zr360       O361   2.434       .  S
Zr360       O362   2.435       .  S
Zr360       O366   2.375   1_655  S
Zr360       O367   2.363       .  S
Zr360       O390   2.368       .  S
Zr360       O392   2.371   1_655  S
O361        H404   0.990   1_655  S
O362        H403   0.990   1_655  S
O362        H407   0.990       .  S
Zr363       O364   2.436       .  S
Zr363       O365   2.435       .  S
Zr363       O367   2.368       .  S
Zr363       O366   2.370   1_655  S
Zr363       O391   2.367   1_655  S
Zr363       O393   2.370       .  S
O364        H405   0.990       .  S
O364        H408   0.990       .  S
O365        H398   0.990   1_655  S
O366       Zr386   2.380       .  S
O367       Zr387   2.382       .  S
O367        H394   0.965       .  S
O368       Zr380   2.454       .  S
O368        C370   1.292       .  A
O369       Zr387   2.415       .  S
O369        C370   1.284       .  A
C370        C793   1.491       .  S
O371       Zr383   2.399   1_455  S
O371        C373   1.281       .  A
O372       Zr386   2.450       .  S
O372        C373   1.290       .  A
C373        C646   1.472       .  S
O374       Zr383   2.411       .  S
O374        C376   1.282       .  A
O375       Zr387   2.435       .  S
O375        C376   1.287       .  A
C376        C633   1.465       .  S
O377       Zr380   2.461   1_455  S
O377        C379   1.293       .  A
O378       Zr386   2.407       .  S
O378        C379   1.282       .  A
C379        C582   1.500       .  S
Zr380       O381   2.436       .  S
Zr380       O382   2.434       .  S
Zr380       O388   2.370       .  S
Zr380       O389   2.369   1_655  S
Zr380       O392   2.368   1_655  S
Zr380       O390   2.376       .  S
O381        H401   0.990       .  S
O381        H406   0.990       .  S
O382        H402   0.990       .  S
Zr383       O384   2.434       .  S
Zr383       O385   2.434       .  S
Zr383       O389   2.368   1_655  S
Zr383       O388   2.361       .  S
Zr383       O393   2.363       .  S
Zr383       O391   2.362   1_655  S
O384        H400   0.990       .  S
O385        H399   0.990       .  S
O385        H409   0.990       .  S
Zr386       O389   2.381       .  S
Zr386       O391   2.383       .  S
Zr386       O392   2.392       .  S
Zr387       O388   2.384       .  S
Zr387       O390   2.389       .  S
Zr387       O393   2.379       .  S
O388        H396   0.965       .  S
O391        H395   0.966       .  S
O392        H397   0.966       .  S
C410        C870   1.479       .  S
C410        C411   1.402       .  A
C410        C415   1.402       .  A
C411        C412   1.406       .  A
C411        H416   1.083       .  S
C412        C665   1.484       .  S
C412        C413   1.401       .  A
C413        C414   1.401       .  A
C413        H417   1.084       .  S
C414        C585   1.474       .  S
C414        C415   1.403       .  A
C415        H418   1.084       .  S
C419        C569   1.492       .  S
C419        C420   1.406       .  A
C419        C424   1.408       .  A
C420        C421   1.403       .  A
C420        H425   1.081       .  S
C421        C713   1.476       .  S
C421        C422   1.400       .  A
C422        C423   1.393       .  A
C422        H426   1.085       .  S
C423        C649   1.475       .  S
C423        C424   1.404       .  A
C424        H427   1.084       .  S
C428        C694   1.472       .  S
C428        C429   1.400       .  A
C428        C433   1.401       .  A
C429        C430   1.397       .  A
C429        H434   1.084       .  S
C430        C630   1.469       .  S
C430        C431   1.403       .  A
C431        C432   1.403       .  A
C431        H435   1.084       .  S
C432        C550   1.480       .  S
C432        C433   1.402       .  A
C433        H436   1.084       .  S
C437        C534   1.475       .  S
C437        C438   1.400       .  A
C437        C442   1.401       .  A
C438        C439   1.401       .  A
C438        H443   1.082       .  S
C439        C726   1.479       .  S
C439        C440   1.401       .  A
C440        C441   1.398       .  A
C440        H444   1.083       .  S
C441        C598   1.477       .  S
C441        C442   1.405       .  A
C442        H445   1.084       .  S
C446        C681   1.481       .  S
C446        C447   1.403       .  A
C446        C451   1.403       .  A
C447        C448   1.399       .  A
C447        H452   1.084       .  S
C448        C617   1.476       .  S
C448        C449   1.403       .  A
C449        C450   1.404       .  A
C449        H453   1.083       .  S
C450        C518   1.482       .  S
C450        C451   1.403       .  A
C451        H454   1.084       .  S
O455       Zr467   2.445       .  S
O455        C457   1.287       .  A
O456       Zr493   2.420   1_465  S
O456        C457   1.287       .  A
C457        C937   1.501       .  S
O458       Zr470   2.424       .  S
O458        C460   1.284       .  A
O459       Zr494   2.448   1_455  S
O459        C460   1.291       .  A
C460        C566   1.483       .  S
O461       Zr470   2.437       .  S
O461        C463   1.288       .  A
O462       Zr493   2.417   1_455  S
O462        C463   1.285       .  A
C463        C950   1.485       .  S
O464       Zr467   2.414       .  S
O464        C466   1.281       .  A
O465       Zr494   2.445   1_465  S
O465        C466   1.292       .  A
C466        C537   1.490       .  S
Zr467       O468   2.434       .  S
Zr467       O469   2.436       .  S
Zr467       O473   2.359   1_565  S
Zr467       O474   2.377   1_565  S
Zr467       O497   2.372   1_455  S
Zr467       O499   2.361   1_455  S
O468        H511   0.990       .  S
O469        H510   0.990       .  S
O469        H514   0.990       .  S
Zr470       O471   2.436       .  S
Zr470       O472   2.436       .  S
Zr470       O474   2.375       .  S
Zr470       O473   2.367       .  S
Zr470       O498   2.368   1_455  S
Zr470       O500   2.372   1_455  S
O471        H512   0.990       .  S
O471        H515   0.990       .  S
O472        H505   0.990       .  S
O473       Zr493   2.370   1_455  S
O474       Zr494   2.392   1_455  S
O474        H501   0.966       .  S
O475       Zr487   2.430       .  S
O475        C477   1.287       .  A
O476       Zr494   2.434   1_565  S
O476        C477   1.288       .  A
C477        C521   1.488       .  S
O478       Zr490   2.439       .  S
O478        C480   1.288       .  A
O479       Zr493   2.405       .  S
O479        C480   1.282       .  A
C480        C921   1.487       .  S
O481       Zr490   2.423       .  S
O481        C483   1.283       .  A
O482       Zr494   2.451       .  S
O482        C483   1.292       .  A
C483        C553   1.492       .  S
O484       Zr487   2.443       .  S
O484        C486   1.289       .  A
O485       Zr493   2.414   1_565  S
O485        C486   1.284       .  A
C486        C905   1.491       .  S
Zr487       O488   2.436       .  S
Zr487       O489   2.434       .  S
Zr487       O495   2.372   1_565  S
Zr487       O496   2.364   1_565  S
Zr487       O499   2.368       .  S
Zr487       O497   2.370       .  S
O488        H508   0.990       .  S
O488        H513   0.990       .  S
O489        H509   0.990       .  S
Zr490       O491   2.433       .  S
Zr490       O492   2.435       .  S
Zr490       O496   2.365       .  S
Zr490       O495   2.374       .  S
Zr490       O500   2.373       .  S
Zr490       O498   2.365       .  S
O491        H507   0.990       .  S
O492        H506   0.990       .  S
O492        H516   0.990       .  S
Zr493       O496   2.372       .  S
Zr493       O498   2.379       .  S
Zr493       O499   2.374   1_545  S
Zr494       O495   2.391       .  S
Zr494       O497   2.387   1_545  S
Zr494       O500   2.387       .  S
O495        H503   0.966       .  S
O498        H502   0.966       .  S
O499        H504   0.966       .  S
C517        C518   1.404       .  A
C517        C522   1.405       .  A
C517        H524   1.084       .  S
C518        C519   1.411       .  A
C519        C520   1.403       .  A
C519        C526   1.508       .  S
C520        C521   1.409       .  A
C520        H525   1.084       .  S
C521        C522   1.418       .  A
C522        C523   1.509       .  S
C523        H527   1.111       .  S
C523        H528   1.110       .  S
C523        H529   1.111   1_565  S
C526        H530   1.108       .  S
C526        H531   1.110       .  S
C526        H532   1.111       .  S
C533        C534   1.395       .  A
C533        C538   1.402       .  A
C533        H540   1.085       .  S
C534        C535   1.413       .  A
C535        C536   1.402       .  A
C535        C542   1.506       .  S
C536        C537   1.405       .  A
C536        H541   1.084       .  S
C537        C538   1.427       .  A
C538        C539   1.509       .  S
C539        H543   1.111       .  S
C539        H544   1.110       .  S
C539        H545   1.109       .  S
C542        H546   1.107       .  S
C542        H547   1.110       .  S
C542        H548   1.110       .  S
C549        C550   1.396       .  A
C549        C554   1.401       .  A
C549        H556   1.085       .  S
C550        C551   1.414       .  A
C551        C552   1.408       .  A
C551        C558   1.507       .  S
C552        C553   1.406       .  A
C552        H557   1.084       .  S
C553        C554   1.425       .  A
C554        C555   1.509       .  S
C555        H559   1.111       .  S
C555        H560   1.109       .  S
C555        H561   1.110       .  S
C558        H562   1.108       .  S
C558        H563   1.110       .  S
C558        H564   1.111       .  S
C565        C566   1.402       .  A
C565        C570   1.408       .  A
C565        H572   1.084       .  S
C566        C567   1.417       .  A
C567        C568   1.403       .  A
C567        C574   1.509       .  S
C568        C569   1.403       .  A
C568        H573   1.084       .  S
C569        C570   1.422       .  A
C570        C571   1.509       .  S
C571        H575   1.111       .  S
C571        H576   1.106       .  S
C571        H577   1.110       .  S
C574        H578   1.108       .  S
C574        H579   1.111       .  S
C574        H580   1.111       .  S
C581        C582   1.412       .  A
C581        C586   1.406       .  A
C581        H588   1.083       .  S
C582        C583   1.429       .  A
C583        C584   1.402       .  A
C583        C590   1.511       .  S
C584        C585   1.396       .  A
C584        H589   1.085       .  S
C585        C586   1.406       .  A
C586        C587   1.506       .  S
C587        H591   1.111       .  S
C587        H592   1.110       .  S
C587        H593   1.110       .  S
C590        H594   1.110       .  S
C590        H595   1.110       .  S
C590        H596   1.111       .  S
C597        C598   1.402       .  A
C597        C602   1.401       .  A
C597        H604   1.084       .  S
C598        C599   1.417       .  A
C599        C600   1.401       .  A
C599        C606   1.509       .  S
C600        C601   1.399       .  A
C600        H605   1.085       .  S
C601        C602   1.411       .  A
C602        C603   1.506       .  S
C603        H607   1.111       .  S
C603        H608   1.108       .  S
C603        H609   1.109       .  S
C606        H610   1.108       .  S
C606        H611   1.111       .  S
C606        H612   1.111       .  S
C613        C614   1.402       .  A
C613        C618   1.406       .  A
C613        H620   1.084       .  S
C614        C615   1.413       .  A
C615        C616   1.399       .  A
C615        C622   1.509       .  S
C616        C617   1.400       .  A
C616        H621   1.084       .  S
C617        C618   1.413       .  A
C618        C619   1.506       .  S
C619        H623   1.111       .  S
C619        H624   1.110       .  S
C619        H625   1.109       .  S
C622        H626   1.107       .  S
C622        H627   1.109       .  S
C622        H628   1.111       .  S
C629        C630   1.405       .  A
C629        C634   1.409       .  A
C629        H636   1.084       .  S
C630        C631   1.412       .  A
C631        C632   1.393       .  A
C631        C638   1.511       .  S
C632        C633   1.400       .  A
C632        H637   1.086       .  S
C633        C634   1.410       .  A
C634        C635   1.505       .  S
C635        H639   1.111       .  S
C635        H640   1.110       .  S
C635        H641   1.110       .  S
C638        H642   1.107       .  S
C638        H643   1.110       .  S
C638        H644   1.110       .  S
C645        C646   1.403       .  A
C645        C650   1.396       .  A
C645        H652   1.085       .  S
C646        C647   1.411       .  A
C647        C648   1.409       .  A
C647        C654   1.503       .  S
C648        C649   1.405       .  A
C648        H653   1.084       .  S
C649        C650   1.411       .  A
C650        C651   1.510       .  S
C651        H655   1.111       .  S
C651        H656   1.109       .  S
C651        H657   1.110       .  S
C654        H658   1.109       .  S
C654        H659   1.110       .  S
C654        H660   1.111       .  S
C661        C662   1.409       .  A
C661        C666   1.394       .  A
C661        H668   1.080       .  S
C662        C663   1.419       .  A
C663        C664   1.413       .  A
C663        C670   1.506       .  S
C664        C665   1.407       .  A
C664        H669   1.084       .  S
C665        C666   1.411       .  A
C666        C667   1.513       .  S
C667        H671   1.111       .  S
C667        H672   1.110       .  S
C667        H673   1.108       .  S
C670        H674   1.110       .  S
C670        H675   1.110       .  S
C670        H676   1.111       .  S
C677        C678   1.407       .  A
C677        C682   1.400       .  A
C677        H684   1.085       .  S
C678        C679   1.417       .  A
C679        C680   1.403       .  A
C679        C686   1.509       .  S
C680        C681   1.405       .  A
C680        H685   1.084       .  S
C681        C682   1.414       .  A
C682        C683   1.509       .  S
C683        H687   1.111       .  S
C683        H688   1.107       .  S
C683        H689   1.110       .  S
C686        H690   1.111   1_565  S
C686        H691   1.109       .  S
C686        H692   1.111   1_565  S
C693        C694   1.400       .  A
C693        C698   1.400       .  A
C693        H700   1.085       .  S
C694        C695   1.408       .  A
C695        C696   1.402       .  A
C695        C702   1.507       .  S
C696        C697   1.409       .  A
C696        H701   1.084       .  S
C697        C698   1.420       .  A
C698        C699   1.509       .  S
C699        H703   1.111       .  S
C699        H704   1.111       .  S
C699        H705   1.110       .  S
C702        H706   1.110       .  S
C702        H707   1.109       .  S
C702        H708   1.111       .  S
C709        C710   1.409       .  A
C709        C714   1.405       .  A
C709        H716   1.084       .  S
C710        C711   1.415       .  A
C711        C712   1.396       .  A
C711        C718   1.510       .  S
C712        C713   1.403       .  A
C712        H717   1.085       .  S
C713        C714   1.411       .  A
C714        C715   1.506       .  S
C715        H719   1.110       .  S
C715        H720   1.110       .  S
C715        H721   1.108       .  S
C718        H722   1.109       .  S
C718        H723   1.110       .  S
C718        H724   1.111       .  S
C725        C726   1.404       .  A
C725        C730   1.403       .  A
C725        H732   1.084       .  S
C726        C727   1.415       .  A
C727        C728   1.397       .  A
C727        C734   1.510       .  S
C728        C729   1.405       .  A
C728        H733   1.084       .  S
C729        C730   1.419       .  A
C730        C731   1.508       .  S
C731        H735   1.111       .  S
C731        H736   1.110       .  S
C731        H737   1.111       .  S
C734        H738   1.107       .  S
C734        H739   1.110       .  S
C734        H740   1.111       .  S
C741        C742   1.397       .  A
C741        C746   1.401       .  A
C741        H748   1.085       .  S
C742        C743   1.405       .  A
C743        C744   1.404       .  A
C743        C750   1.506       .  S
C744        C745   1.412       .  A
C744        H749   1.083       .  S
C745        C746   1.426       .  A
C746        C747   1.511       .  S
C747        H751   1.111       .  S
C747        H752   1.107       .  S
C747        H753   1.106       .  S
C750        H754   1.111       .  S
C750        H755   1.110       .  S
C750        H756   1.111       .  S
C757        C758   1.397       .  A
C757        C762   1.396       .  A
C757        H764   1.085       .  S
C758        C759   1.412       .  A
C759        C760   1.410       .  A
C759        C766   1.504       .  S
C760        C761   1.403       .  A
C760        H765   1.084       .  S
C761        C762   1.415       .  A
C762        C763   1.509       .  S
C763        H767   1.111       .  S
C763        H768   1.104       .  S
C763        H769   1.110       .  S
C766        H770   1.110       .  S
C766        H771   1.110       .  S
C766        H772   1.111       .  S
C773        C774   1.406       .  A
C773        C778   1.393       .  A
C773        H780   1.079       .  S
C774        C775   1.427       .  A
C775        C776   1.414       .  A
C775        C782   1.505       .  S
C776        C777   1.405       .  A
C776        H781   1.084       .  S
C777        C778   1.422       .  A
C778        C779   1.513       .  S
C779        H783   1.111       .  S
C779        H784   1.105       .  S
C779        H785   1.110       .  S
C782        H786   1.110       .  S
C782        H787   1.107       .  S
C782        H788   1.111       .  S
C789        C790   1.400       .  A
C789        C794   1.403       .  A
C789        H796   1.084       .  S
C790        C791   1.412       .  A
C791        C792   1.404       .  A
C791        C798   1.507       .  S
C792        C793   1.407       .  A
C792        H797   1.084       .  S
C793        C794   1.422       .  A
C794        C795   1.507       .  S
C795        H799   1.111       .  S
C795        H800   1.111       .  S
C795        H801   1.109       .  S
C798        H802   1.110       .  S
C798        H803   1.107       .  S
C798        H804   1.111       .  S
C805        C806   1.397       .  A
C805        C810   1.406       .  A
C805        H812   1.084       .  S
C806        C807   1.409       .  A
C807        C808   1.401       .  A
C807        C814   1.508       .  S
C808        C809   1.410       .  A
C808        H813   1.083       .  S
C809        C810   1.428       .  A
C810        C811   1.509       .  S
C811        H815   1.111       .  S
C811        H816   1.110       .  S
C811        H817   1.110       .  S
C814        H818   1.111       .  S
C814        H819   1.109       .  S
C814        H820   1.111       .  S
C821        C822   1.398       .  A
C821        C826   1.399       .  A
C821        H828   1.085       .  S
C822        C823   1.413       .  A
C823        C824   1.410       .  A
C823        C830   1.504       .  S
C824        C825   1.404       .  A
C824        H829   1.084       .  S
C825        C826   1.416       .  A
C826        C827   1.509       .  S
C827        H831   1.110       .  S
C827        H832   1.109       .  S
C827        H833   1.110       .  S
C830        H834   1.110       .  S
C830        H835   1.110       .  S
C830        H836   1.111       .  S
C837        C838   1.407       .  A
C837        C842   1.405       .  A
C837        H844   1.084       .  S
C838        C839   1.418       .  A
C839        C840   1.413       .  A
C839        C846   1.508       .  S
C840        C841   1.410       .  A
C840        H845   1.084       .  S
C841        C842   1.416       .  A
C842        C843   1.504       .  S
C843        H847   1.109       .  S
C843        H848   1.111       .  S
C843        H849   1.105       .  S
C846        H850   1.107       .  S
C846        H851   1.110       .  S
C846        H852   1.111       .  S
C853        C854   1.398       .  A
C853        C858   1.405       .  A
C853        H860   1.084       .  S
C854        C855   1.414       .  A
C855        C856   1.408       .  A
C855        C862   1.508       .  S
C856        C857   1.407       .  A
C856        H861   1.084       .  S
C857        C858   1.427       .  A
C858        C859   1.510       .  S
C859        H863   1.111       .  S
C859        H864   1.110       .  S
C859        H865   1.109       .  S
C862        H866   1.110       .  S
C862        H867   1.108       .  S
C862        H868   1.111       .  S
C869        C870   1.401       .  A
C869        C874   1.408       .  A
C869        H876   1.084       .  S
C870        C871   1.403       .  A
C871        C872   1.403       .  A
C871        C878   1.507       .  S
C872        C873   1.418       .  A
C872        H877   1.083       .  S
C873        C874   1.423       .  A
C874        C875   1.503       .  S
C875        H879   1.111       .  S
C875        H880   1.101       .  S
C875        H881   1.102       .  S
C878        H882   1.110       .  S
C878        H883   1.110       .  S
C878        H884   1.111       .  S
C885        C886   1.408       .  A
C885        C890   1.406       .  A
C885        H892   1.085       .  S
C886        C887   1.412       .  A
C887        C888   1.405       .  A
C887        C894   1.500       .  S
C888        C889   1.406       .  A
C888        H893   1.084       .  S
C889        C890   1.414       .  A
C890        C891   1.507       .  S
C891        H895   1.110       .  S
C891        H896   1.107       .  S
C891        H897   1.110       .  S
C894        H898   1.111       .  S
C894        H899   1.108       .  S
C894        H900   1.111       .  S
C901        C902   1.401       .  A
C901        C906   1.402       .  A
C901        H908   1.084       .  S
C902        C903   1.411       .  A
C903        C904   1.404       .  A
C903        C910   1.508       .  S
C904        C905   1.409       .  A
C904        H909   1.084       .  S
C905        C906   1.422       .  A
C906        C907   1.510       .  S
C907        H911   1.111       .  S
C907        H912   1.110       .  S
C907        H913   1.110       .  S
C910        H914   1.108       .  S
C910        H915   1.110       .  S
C910        H916   1.111       .  S
C917        C918   1.400       .  A
C917        C922   1.398       .  A
C917        H924   1.085       .  S
C918        C919   1.409       .  A
C919        C920   1.404       .  A
C919        C926   1.507       .  S
C920        C921   1.410       .  A
C920        H925   1.084       .  S
C921        C922   1.422       .  A
C922        C923   1.511       .  S
C923        H927   1.111       .  S
C923        H928   1.111       .  S
C923        H929   1.110       .  S
C926        H930   1.110       .  S
C926        H931   1.109       .  S
C926        H932   1.111       .  S
C933        C934   1.398       .  A
C933        C938   1.407       .  A
C933        H940   1.084       .  S
C934        C935   1.409       .  A
C935        C936   1.401       .  A
C935        C942   1.508       .  S
C936        C937   1.411       .  A
C936        H941   1.083       .  S
C937        C938   1.427       .  A
C938        C939   1.508       .  S
C939        H943   1.111       .  S
C939        H944   1.110       .  S
C939        H945   1.109       .  S
C942        H946   1.110       .  S
C942        H947   1.109       .  S
C942        H948   1.111       .  S
C949        C950   1.409       .  A
C949        C954   1.404       .  A
C949        H956   1.084       .  S
C950        C951   1.420       .  A
C951        C952   1.399       .  A
C951        C958   1.507       .  S
C952        C953   1.398       .  A
C952        H957   1.085       .  S
C953        C954   1.408       .  A
C954        C955   1.506       .  S
C955        H959   1.111       .  S
C955        H960   1.110       .  S
C955        H961   1.109       .  S
C958        H962   1.109       .  S
C958        H963   1.110       .  S
C958        H964   1.111       .  S
C965        C966   1.406       .  A
C965        C970   1.413       .  A
C965        H972   1.084       .  S
C966        C967   1.412       .  A
C967        C968   1.406       .  A
C967        C974   1.509       .  S
C968        C969   1.413       .  A
C968        H973   1.084       .  S
C969        C970   1.418       .  A
C970        C971   1.500       .  S
C971        H975   1.111       .  S
C971        H976   1.108       .  S
C971        H977   1.110       .  S
C974        H978   1.110       .  S
C974        H979   1.108       .  S
C974        H980   1.111       .  S
C981        C982   1.410       .  A
C981        C986   1.414       .  A
C981        H988   1.084       .  S
C982        C983   1.421       .  A
C983        C984   1.404       .  A
C983        C990   1.510       .  S
C984        C985   1.404       .  A
C984        H989   1.085       .  S
C985        C986   1.414       .  A
C986        C987   1.503       .  S
C987        H991   1.111       .  S
C987        H992   1.106       .  S
C987        H993   1.111       .  S
C990        H994   1.110       .  S
C990        H995   1.106       .  S
C990        H996   1.111       .  S
C997        C998   1.412       .  A
C997       C1002   1.400       .  A
C997       H1004   1.084       .  S
C998        C999   1.419       .  A
C999       C1000   1.415       .  A
C999       C1006   1.506       .  S
C1000      C1001   1.406       .  A
C1000      H1005   1.084       .  S
C1001      C1002   1.408       .  A
C1002      C1003   1.509       .  S
C1003      H1007   1.111       .  S
C1003      H1008   1.111       .  S
C1003      H1009   1.109       .  S
C1006      H1010   1.111       .  S
C1006      H1011   1.110       .  S
C1006      H1012   1.111       .  S
C1013      C1014   1.404       .  A
C1013      C1018   1.404       .  A
C1013      H1020   1.084       .  S
C1014      C1015   1.408       .  A
C1015      C1016   1.401       .  A
C1015      C1022   1.509       .  S
C1016      C1017   1.407       .  A
C1016      H1021   1.084       .  S
C1017      C1018   1.413       .  A
C1018      C1019   1.507       .  S
C1019      H1023   1.111       .  S
C1019      H1024   1.110       .  S
C1019      H1025   1.107       .  S
C1022      H1026   1.110       .  S
C1022      H1027   1.111       .  S
C1022      H1028   1.111       .  S
C1029      C1030   1.400       .  A
C1029      C1034   1.394       .  A
C1029      H1036   1.085       .  S
C1030      C1031   1.411       .  A
C1031      C1032   1.406       .  A
C1031      C1038   1.506       .  S
C1032      C1033   1.405       .  A
C1032      H1037   1.084       .  S
C1033      C1034   1.412       .  A
C1034      C1035   1.510       .  S
C1035      H1039   1.111       .  S
C1035      H1040   1.110       .  S
C1035      H1041   1.109       .  S
C1038      H1042   1.110       .  S
C1038      H1043   1.111       .  S
C1038      H1044   1.111       .  S
C1045      C1046   1.398       .  A
C1045      C1050   1.401       .  A
C1045      H1052   1.085       .  S
C1046      C1047   1.413       .  A
C1047      C1048   1.400       .  A
C1047      C1054   1.507       .  S
C1048      C1049   1.400       .  A
C1048      H1053   1.084       .  S
C1049      C1050   1.418       .  A
C1050      C1051   1.510       .  S
C1051      H1055   1.111       .  S
C1051      H1056   1.110       .  S
C1051      H1057   1.107       .  S
C1054      H1058   1.109       .  S
C1054      H1059   1.108       .  S
C1054      H1060   1.111       .  S
C1061      C1062   1.412       .  A
C1061      C1066   1.397       .  A
C1061      H1068   1.083       .  S
C1062      C1063   1.424       .  A
C1063      C1064   1.409       .  A
C1063      C1070   1.508       .  S
C1064      C1065   1.401       .  A
C1064      H1069   1.084       .  S
C1065      C1066   1.407       .  A
C1066      C1067   1.509       .  S
C1067      H1071   1.111       .  S
C1067      H1072   1.109       .  S
C1067      H1073   1.111       .  S
C1070      H1074   1.110       .  S
C1070      H1075   1.110       .  S
C1070      H1076   1.111       .  S
C1077      C1078   1.411       .  A
C1077      C1082   1.409       .  A
C1077      H1084   1.083       .  S
C1078      C1079   1.430       .  A
C1079      C1080   1.400       .  A
C1079      C1086   1.512       .  S
C1080      C1081   1.394       .  A
C1080      H1085   1.085       .  S
C1081      C1082   1.409       .  A
C1082      C1083   1.505       .  S
C1083      H1087   1.111       .  S
C1083      H1088   1.110       .  S
C1083      H1089   1.111       .  S
C1086      H1090   1.110       .  S
C1086      H1091   1.110   1_565  S
C1086      H1092   1.111       .  S
C1093      C1094   1.411       .  A
C1093      C1098   1.395       .  A
C1093      H1100   1.084       .  S
C1094      C1095   1.420       .  A
C1095      C1096   1.415       .  A
C1095      C1102   1.506       .  S
C1096      C1097   1.406       .  A
C1096      H1101   1.084       .  S
C1097      C1098   1.410       .  A
C1098      C1099   1.510       .  S
C1099      H1103   1.111       .  S
C1099      H1104   1.110       .  S
C1099      H1105   1.107       .  S
C1102      H1106   1.110       .  S
C1102      H1107   1.110       .  S
C1102      H1108   1.111       .  S
C1109      C1110   1.410       .  A
C1109      C1114   1.404       .  A
C1109      H1116   1.083       .  S
C1110      C1111   1.428       .  A
C1111      C1112   1.401       .  A
C1111      C1118   1.511       .  S
C1112      C1113   1.395       .  A
C1112      H1117   1.085       .  S
C1113      C1114   1.406       .  A
C1114      C1115   1.506       .  S
C1115      H1119   1.111       .  S
C1115      H1120   1.110       .  S
C1115      H1121   1.111       .  S
C1118      H1122   1.110       .  S
C1118      H1123   1.110       .  S
C1118      H1124   1.111       .  S
C1125      C1126   1.405       .  A
C1125      C1130   1.413       .  A
C1125      H1132   1.084       .  S
C1126      C1127   1.407       .  A
C1127      C1128   1.405       .  A
C1127      C1134   1.508       .  S
C1128      C1129   1.417       .  A
C1128      H1133   1.083       .  S
C1129      C1130   1.421       .  A
C1130      C1131   1.503       .  S
C1131      H1135   1.111       .  S
C1131      H1136   1.106       .  S
C1131      H1137   1.102       .  S
C1134      H1138   1.109       .  S
C1134      H1139   1.111       .  S
C1134      H1140   1.111       .  S
C1141      C1142   1.407       .  A
C1141      C1146   1.408       .  A
C1141      H1148   1.084       .  S
C1142      C1143   1.412       .  A
C1143      C1144   1.395       .  A
C1143      C1150   1.510       .  S
C1144      C1145   1.402       .  A
C1144      H1149   1.085       .  S
C1145      C1146   1.410       .  A
C1146      C1147   1.504       .  S
C1147      H1151   1.111       .  S
C1147      H1152   1.110       .  S
C1147      H1153   1.108       .  S
C1150      H1154   1.110       .  S
C1150      H1155   1.108       .  S
C1150      H1156   1.111       .  S
C1157      C1158   1.404       .  A
C1157      C1162   1.395       .  A
C1157      H1164   1.085       .  S
C1158      C1159   1.410       .  A
C1159      C1160   1.411       .  A
C1159      C1166   1.505       .  S
C1160      C1161   1.407       .  A
C1160      H1165   1.084       .  S
C1161      C1162   1.410       .  A
C1162      C1163   1.509       .  S
C1163      H1167   1.111       .  S
C1163      H1168   1.110       .  S
C1163      H1169   1.109       .  S
C1166      H1170   1.110       .  S
C1166      H1171   1.110       .  S
C1166      H1172   1.111       .  S
C1173      C1174   1.406       .  A
C1173      C1178   1.406       .  A
C1173      H1180   1.085       .  S
C1174      C1175   1.408       .  A
C1175      C1176   1.399       .  A
C1175      C1182   1.504       .  S
C1176      C1177   1.409       .  A
C1176      H1181   1.083       .  S
C1177      C1178   1.416       .  A
C1178      C1179   1.506       .  S
C1179      H1183   1.111       .  S
C1179      H1184   1.107       .  S
C1179      H1185   1.110       .  S
C1182      H1186   1.109       .  S
C1182      H1187   1.110       .  S
C1182      H1188   1.111       .  S
C1189      C1190   1.406       .  A
C1189      C1194   1.409       .  A
C1189      H1196   1.084       .  S
C1190      C1191   1.411       .  A
C1191      C1192   1.397       .  A
C1191      C1198   1.508       .  S
C1192      C1193   1.402       .  A
C1192      H1197   1.085       .  S
C1193      C1194   1.410       .  A
C1194      C1195   1.504       .  S
C1195      H1199   1.111       .  S
C1195      H1200   1.110       .  S
C1195      H1201   1.110       .  S
C1198      H1202   1.109       .  S
C1198      H1203   1.109       .  S
C1198      H1204   1.111       .  S
C1205      C1206   1.405       .  A
C1205      C1210   1.410       .  A
C1205      H1212   1.084       .  S
C1206      C1207   1.411       .  A
C1207      C1208   1.397       .  A
C1207      C1214   1.509       .  S
C1208      C1209   1.402       .  A
C1208      H1213   1.085       .  S
C1209      C1210   1.411       .  A
C1210      C1211   1.505       .  S
C1211      H1215   1.111       .  S
C1211      H1216   1.110       .  S
C1211      H1217   1.111       .  S
C1214      H1218   1.110       .  S
C1214      H1219   1.109       .  S
C1214      H1220   1.111       .  S
C1221      C1222   1.398       .  A
C1221      C1226   1.403       .  A
C1221      H1228   1.084       .  S
C1222      C1223   1.413       .  A
C1223      C1224   1.406       .  A
C1223      C1230   1.507       .  S
C1224      C1225   1.406       .  A
C1224      H1229   1.084       .  S
C1225      C1226   1.424       .  A
C1226      C1227   1.509       .  S
C1227      H1231   1.111       .  S
C1227      H1232   1.109       .  S
C1227      H1233   1.111       .  S
C1230      H1234   1.109       .  S
C1230      H1235   1.111       .  S
C1230      H1236   1.111       .  S
C1237      C1238   1.404       .  A
C1237      C1242   1.403       .  A
C1237      H1244   1.079       .  S
C1238      C1239   1.421       .  A
C1239      C1240   1.405       .  A
C1239      C1246   1.507       .  S
C1240      C1241   1.401       .  A
C1240      H1245   1.084       .  S
C1241      C1242   1.413       .  A
C1242      C1243   1.506       .  S
C1243      H1247   1.111       .  S
C1243      H1248   1.110       .  S
C1243      H1249   1.107       .  S
C1246      H1250   1.111       .  S
C1246      H1251   1.108       .  S
C1246      H1252   1.111       .  S
C1253      C1254   1.404       .  A
C1253      C1258   1.403       .  A
C1253      H1260   1.084       .  S
C1254      C1255   1.418       .  A
C1255      C1256   1.402       .  A
C1255      C1262   1.509       .  S
C1256      C1257   1.401       .  A
C1256      H1261   1.084       .  S
C1257      C1258   1.417       .  A
C1258      C1259   1.510       .  S
C1259      H1263   1.111       .  S
C1259      H1264   1.110       .  S
C1259      H1265   1.107       .  S
C1262      H1266   1.111       .  S
C1262      H1267   1.108       .  S
C1262      H1268   1.111       .  S
C1269      C1270   1.405       .  A
C1269      C1274   1.406       .  A
C1269      H1276   1.084       .  S
C1270      C1271   1.412       .  A
C1271      C1272   1.397       .  A
C1271      C1278   1.509       .  S
C1272      C1273   1.407       .  A
C1272      H1277   1.085       .  S
C1273      C1274   1.415       .  A
C1274      C1275   1.506       .  S
C1275      H1279   1.111       .  S
C1275      H1280   1.108       .  S
C1275      H1281   1.110       .  S
C1278      H1282   1.107       .  S
C1278      H1283   1.110       .  S
C1278      H1284   1.111       .  S
