geometry optimzed in LAMMPS
_audit_creation_date              2020-12-01 
_audit_creation_method            'lammps2cif' 
_symmetry_space_group_name_H-M    'P1' 
_symmetry_Int_Tables_number       1 
_symmetry_cell_setting            triclinic 
loop_ 
_symmetry_equiv_pos_as_xyz 
  x,y,z 
_cell_length_a                    62.9993788 
_cell_length_b                    62.95430860471967 
_cell_length_c                    100.56506530280609 
_cell_angle_alpha                 90.07144466332375 
_cell_angle_beta                  89.95180251278576 
_cell_angle_gamma                 120.95498942436903 
loop_ 
_atom_site_label 
_atom_site_type_symbol 
_atom_site_fract_x 
_atom_site_fract_y 
_atom_site_fract_z 
_atom_site_charge 
N1          N  0.62225112  0.82108711  0.26857992    -0.27200
N2          N  0.64357945  0.83373339  0.27490096    -0.35000
C3          C  0.63942802  0.83267040  0.28800911     0.01200
C4          C  0.61421449  0.81852663  0.29013343     0.07200
C5          C  0.60381874  0.81149535  0.27757063    -0.05900
H6          H  0.65384234  0.84106095  0.29545147     0.07900
H7          H  0.58438804  0.80037808  0.27509039     0.09100
Cu8        Cu  0.67757873  0.85107447  0.26585269     0.44200
Cu9        Cu  0.61976084  0.81745536  0.24810323     0.42000
Cu10       Cu  0.67945585  0.84965090  0.23060703     0.43900
N11         N  0.71005475  0.86682975  0.25533619    -0.34500
N12         N  0.71102382  0.86663628  0.24224439    -0.28800
C13         C  0.73486511  0.87833779  0.23844645    -0.04900
C14         C  0.74961175  0.88634836  0.24975798     0.07300
C15         C  0.73308769  0.87847511  0.26027873     0.01100
H16         H  0.74092928  0.88082345  0.22820402     0.08800
H17         H  0.73720455  0.88034780  0.27079021     0.07800
N18         N  0.64524335  0.83019290  0.22140939    -0.36000
N19         N  0.62373898  0.81824048  0.22764854    -0.28200
C20         C  0.60550808  0.80763885  0.21858812    -0.03400
C21         C  0.61599138  0.81313741  0.20599511     0.05200
C22         C  0.64125961  0.82764583  0.20824718     0.03300
H23         H  0.58604934  0.79676396  0.22105341     0.08400
H24         H  0.65587120  0.83642322  0.20095870     0.07200
N25         N  0.13761089  0.31920785  0.26706419    -0.27200
N26         N  0.13068474  0.29920945  0.27437820    -0.35000
C27         C  0.13187341  0.30512709  0.28728672     0.01200
C28         C  0.14003305  0.33008146  0.28831910     0.07200
C29         C  0.14350287  0.33843324  0.27526380    -0.05900
H30         H  0.12705637  0.29205658  0.29534618     0.07900
H31         H  0.14915357  0.35690607  0.27190081     0.09100
Cu32       Cu  0.11850888  0.26392111  0.26728126     0.44200
Cu33       Cu  0.13773201  0.31949730  0.24621534     0.42000
Cu34       Cu  0.10919717  0.25772693  0.23270552     0.43900
N35         N  0.10308944  0.22997613  0.25786590    -0.34500
N36         N  0.09910411  0.22785316  0.24492870    -0.28800
C37         C  0.08684513  0.20381453  0.24157687    -0.04900
C38         C  0.08293094  0.19002116  0.25298136     0.07300
C39         C  0.09355393  0.20722796  0.26315705     0.01100
H40         H  0.08059702  0.19689095  0.23162010     0.08800
H41         H  0.09305814  0.20348644  0.27368409     0.07800
N42         N  0.12269234  0.28901878  0.22118362    -0.36000
N43         N  0.13369764  0.31193014  0.22576813    -0.28200
C44         C  0.14117035  0.32758854  0.21530091    -0.03400
C45         C  0.13445435  0.31367734  0.20360590     0.05200
C46         C  0.12276062  0.28935137  0.20787159     0.03300
H47         H  0.15059607  0.34751961  0.21619809     0.08400
H48         H  0.11537259  0.27290018  0.20176418     0.07200
N49         N  0.12011193  0.80661527  0.23148142    -0.27200
N50         N  0.10637175  0.81421549  0.22568746    -0.35000
C51         C  0.10742224  0.81225574  0.21247609     0.01200
C52         C  0.12266078  0.80303347  0.20960303     0.07200
C53         C  0.13045345  0.79971446  0.22196763    -0.05900
H54         H  0.09749344  0.81705546  0.20550929     0.07900
H55         H  0.14290149  0.79308508  0.22398981     0.09100
Cu56       Cu  0.08670936  0.82746600  0.23536152     0.44200
Cu57       Cu  0.12288786  0.80509088  0.25209152     0.42000
Cu58       Cu  0.08298247  0.82241442  0.27005018     0.43900
N59         N  0.06883499  0.84097963  0.24652152    -0.34500
N60         N  0.06717799  0.83890188  0.25957457    -0.28800
C61         C  0.05500529  0.84975037  0.26416901    -0.04900
C62         C  0.04864769  0.85908358  0.25340610     0.07300
C63         C  0.05786129  0.85326807  0.24238123     0.01100
H64         H  0.05176224  0.85135127  0.27458480     0.08800
H65         H  0.05673257  0.85765223  0.23210478     0.07800
N66         N  0.10243853  0.80799021  0.27879938    -0.36000
N67         N  0.11760191  0.80252123  0.27265121    -0.28200
C68         C  0.12794882  0.79494860  0.28179035    -0.03400
C69         C  0.11865132  0.79558508  0.29421671     0.05200
C70         C  0.10253528  0.80387749  0.29185728     0.03300
H71         H  0.14108169  0.78925961  0.27951217     0.08400
H72         H  0.09216007  0.80748303  0.29916693     0.07200
C73         C  0.97096836  0.96472425  0.25499103     0.80400
N74         N  0.94602248  0.95406065  0.25425173    -0.78000
C75         C  0.93528647  0.96799611  0.25398585     0.82800
N76         N  0.94990964  0.99304052  0.25445784    -0.77900
C77         C  0.97489673  0.00411915  0.25530836     0.82900
N78         N  0.98527588  0.98980930  0.25548484    -0.79600
N79         N  0.69921896  0.16060877  0.93000226    -0.27200
N80         N  0.70904958  0.17206940  0.94135411    -0.35000
C81         C  0.69327271  0.15957693  0.95132125     0.01200
C82         C  0.67245539  0.13931514  0.94596908     0.07200
C83         C  0.67681335  0.14064675  0.93242037    -0.05900
H84         H  0.69661330  0.16508775  0.96165997     0.07900
H85         H  0.66479167  0.12778662  0.92489353     0.09100
Cu86       Cu  0.74324081  0.20432249  0.94279016     0.44200
Cu87       Cu  0.71708681  0.17193950  0.91184178     0.42000
Cu88       Cu  0.77812250  0.22718067  0.91221915     0.43900
N89         N  0.77752479  0.23652711  0.94162692    -0.34500
N90         N  0.79043202  0.24473284  0.93050369    -0.28800
C91         C  0.81184652  0.26581648  0.93311642    -0.04900
C92         C  0.81243387  0.27118100  0.94653156     0.07300
C93         C  0.79025781  0.25227494  0.95158076     0.01100
H94         H  0.82566752  0.27672247  0.92570724     0.08800
H95         H  0.78387418  0.25003044  0.96175847     0.07800
N96         N  0.76202410  0.20560146  0.89539181    -0.36000
N97         N  0.73970640  0.18552651  0.89527495    -0.28200
C98         C  0.73531420  0.17500075  0.88317530    -0.03400
C99         C  0.75592845  0.18897357  0.87526667     0.05200
C100        C  0.77243482  0.20836534  0.88334984     0.03300
H101        H  0.71877421  0.15775437  0.88054473     0.08400
H102        H  0.79084736  0.22320469  0.88080964     0.07200
N103        N  0.15311398  0.36839255  0.08591820    -0.27200
N104        N  0.17299969  0.36644866  0.08527504    -0.35000
C105        C  0.17722129  0.36005388  0.09731329     0.01200
C106        C  0.15911164  0.35786492  0.10600620     0.07200
C107        C  0.14420762  0.36337841  0.09840722    -0.05900
H108        H  0.19285624  0.35803921  0.09963170     0.07900
H109        H  0.12813989  0.36389145  0.10172799     0.09100
Cu110      Cu  0.19446054  0.37431941  0.06829938     0.44200
Cu111      Cu  0.13991800  0.37923110  0.06995724     0.42000
Cu112      Cu  0.17782333  0.39858429  0.04011303     0.43900
N113        N  0.21497535  0.38652444  0.05091526    -0.34500
N114        N  0.20918761  0.39575839  0.04069768    -0.28800
C115        C  0.22735785  0.40392248  0.03157451    -0.04900
C116        C  0.24549828  0.39964652  0.03629631     0.07300
C117        C  0.23687428  0.38841952  0.04853842     0.01100
H118        H  0.22745050  0.41266665  0.02230743     0.08800
H119        H  0.24638536  0.38310686  0.05551463     0.07800
N120        N  0.14641012  0.40098751  0.04245115    -0.36000
N121        N  0.13245228  0.39368843  0.05323986    -0.28200
C122        C  0.11406413  0.39840196  0.05171501    -0.03400
C123        C  0.11647913  0.40925144  0.03935727     0.05200
C124        C  0.13733772  0.41062323  0.03380990     0.03300
H125        H  0.10004984  0.39432083  0.05914348     0.08400
H126        H  0.14592998  0.41871756  0.02438591     0.07200
N127        N  0.76542716  0.54522465  0.90547601    -0.27200
N128        N  0.74423235  0.54458177  0.90458249    -0.35000
C129        C  0.74198272  0.55151641  0.89227641     0.01200
C130        C  0.76295192  0.55689442  0.88504856     0.07200
C131        C  0.77732576  0.55254639  0.89377865    -0.05900
H132        H  0.72606715  0.55218531  0.88886618     0.07900
H133        H  0.79528870  0.55484762  0.89186037     0.09100
Cu134      Cu  0.72029394  0.53462044  0.92050082     0.44200
Cu135      Cu  0.77675792  0.53640953  0.92277193     0.42000
Cu136      Cu  0.73733237  0.51793226  0.95221528     0.43900
N137        N  0.69989337  0.52590828  0.93781303    -0.34500
N138        N  0.70561287  0.51976319  0.94925878    -0.28800
C139        C  0.68823771  0.51600814  0.95830157    -0.04900
C140        C  0.67098434  0.52027481  0.95225833     0.07300
C141        C  0.67893802  0.52627958  0.93925380     0.01100
H142        H  0.68847039  0.51108450  0.96858103     0.08800
H143        H  0.67012995  0.53042534  0.93128471     0.07800
N144        N  0.77162302  0.52055052  0.95158624    -0.36000
N145        N  0.78571621  0.52757868  0.94084089    -0.28200
C146        C  0.80688050  0.52827262  0.94354425    -0.03400
C147        C  0.80630429  0.52129736  0.95662857     0.05200
C148        C  0.78357437  0.51647145  0.96145099     0.03300
H149        H  0.82155818  0.53331274  0.93639511     0.08400
H150        H  0.77642575  0.51097990  0.97142808     0.07200
O151        O  0.93787629  0.43811132  0.99971185    -0.72800
O152        O  0.98352031  0.50587563  0.01484183    -0.73800
O153        O  0.93712672  0.48262726  0.00177853    -0.62400
O154        O  0.98411939  0.46100469  0.01275759    -0.70800
O155        O  0.00400995  0.47397440  0.99354681    -0.70400
O156        O  0.95576028  0.49418373  0.98217471    -0.61600
O157        O  0.00228611  0.51841550  0.99536441    -0.74100
O158        O  0.95729693  0.45011357  0.98035091    -0.72900
Cu159      Cu  0.96007147  0.47152011  0.00794587     0.97800
Cu160      Cu  0.98057041  0.48463384  0.98718535     1.04300
C161        C  0.94022606  0.43337642  0.98761867     0.93400
C162        C  0.99989185  0.52305536  0.00748451     0.92500
C163        C  0.93873473  0.49146668  0.99015097     0.84700
C164        C  0.00131301  0.46379031  0.00490785     0.90900
O165        O  0.45236552  0.45005307  0.97925071    -0.72800
O166        O  0.46992789  0.51623823  0.99386576    -0.73800
O167        O  0.49570158  0.49648971  0.98069460    -0.62400
O168        O  0.42570497  0.46911553  0.99245324    -0.70800
O169        O  0.43474209  0.45938266  0.01193626    -0.70400
O170        O  0.50475638  0.48641927  0.00012462    -0.61600
O171        O  0.47909696  0.50626898  0.01324431    -0.74100
O172        O  0.46089589  0.43985779  0.99879239    -0.72900
Cu173      Cu  0.46054977  0.48336172  0.98591959     1.04600
Cu174      Cu  0.47011605  0.47265708  0.00672826     1.04300
C175        C  0.45458288  0.43478446  0.98660503     0.93400
C176        C  0.47766862  0.52193572  0.00581781     0.92500
C177        C  0.51105667  0.49505214  0.98836086     0.84700
C178        C  0.41904027  0.45980714  0.00407657     0.90900
N179        N  0.22563432  0.81006549  0.06344872    -0.27200
N180        N  0.22182722  0.79460299  0.05355533    -0.35000
C181        C  0.24135524  0.80543006  0.04524988     0.01200
C182        C  0.25810776  0.82889773  0.05002993     0.07200
C183        C  0.24745916  0.83117883  0.06157810    -0.05900
H184        H  0.24334661  0.79673379  0.03643622     0.07900
H185        H  0.25551430  0.84655481  0.06848373     0.09100
Cu186      Cu  0.19047451  0.75917816  0.05167601     0.44200
Cu187      Cu  0.20266666  0.80117250  0.07991827     0.42000
Cu188      Cu  0.14773857  0.74076952  0.07888223     0.43900
N189        N  0.15641987  0.72584140  0.05198061    -0.34500
N190        N  0.14084167  0.71956769  0.06204346    -0.28800
C191        C  0.12018813  0.69789515  0.05936637    -0.04900
C192        C  0.12263938  0.68983769  0.04696896     0.07300
C193        C  0.14596574  0.70809084  0.04257126     0.01100
H194        H  0.10452699  0.68867160  0.06603026     0.08800
H195        H  0.15447272  0.70885527  0.03310317     0.07800
N196        N  0.15789183  0.76376259  0.09518308    -0.36000
N197        N  0.17819859  0.78586610  0.09575286    -0.28200
C198        C  0.18006313  0.79531432  0.10799883    -0.03400
C199        C  0.15977890  0.77837717  0.11538957     0.05200
C200        C  0.14615513  0.75860636  0.10693365     0.03300
H201        H  0.19509030  0.81312643  0.11128658     0.08400
H202        H  0.12936983  0.74136093  0.10924615     0.07200
N203        N  0.40891039  0.18073232  0.90427254    -0.27200
N204        N  0.41532407  0.20408381  0.90267657    -0.35000
C205        C  0.41168165  0.20779465  0.88995524     0.01200
C206        C  0.40210789  0.18554000  0.88313382     0.07200
C207        C  0.40083537  0.16883876  0.89258056    -0.05900
H208        H  0.41566051  0.22549122  0.88611992     0.07900
H209        H  0.39385204  0.14929310  0.89119535     0.09100
Cu210      Cu  0.42660475  0.22922776  0.91810944     0.44200
Cu211      Cu  0.41119073  0.16669307  0.92247066     0.42000
Cu212      Cu  0.43532163  0.20986719  0.95053462     0.43900
N213        N  0.43434667  0.25033165  0.93512307    -0.34500
N214        N  0.43803295  0.24364859  0.94694592    -0.28800
C215        C  0.44188396  0.26124575  0.95585559    -0.04900
C216        C  0.44039872  0.27978884  0.94929955     0.07300
C217        C  0.43548897  0.27215398  0.93619258     0.01100
H218        H  0.44453032  0.26007400  0.96639416     0.08800
H219        H  0.43271557  0.28164040  0.92802506     0.07800
N220        N  0.42747739  0.17355576  0.95126264    -0.36000
N221        N  0.41780161  0.15780743  0.94122483    -0.28200
C222        C  0.41473842  0.13589762  0.94488002    -0.03400
C223        C  0.42299428  0.13790245  0.95780148     0.05200
C224        C  0.43112018  0.16208488  0.96152753     0.03300
H225        H  0.40809236  0.12003461  0.93836655     0.08400
H226        H  0.43931453  0.17077449  0.97093976     0.07200
N227        N  0.52982826  0.77296377  0.09452884    -0.27200
N228        N  0.52418571  0.74988736  0.09641007    -0.35000
C229        C  0.52740487  0.74685050  0.10935630     0.01200
C230        C  0.53551812  0.76921260  0.11584982     0.07200
C231        C  0.53681102  0.78526910  0.10609739    -0.05900
H232        H  0.52535334  0.73007357  0.11354303     0.07900
H233        H  0.54306499  0.80471738  0.10721355     0.09100
Cu234      Cu  0.51479341  0.72513953  0.08072914     0.44200
Cu235      Cu  0.52941879  0.78742872  0.07632035     0.42000
Cu236      Cu  0.51123282  0.74898991  0.04758399     0.43900
N237        N  0.50842776  0.70613144  0.06288183    -0.34500
N238        N  0.50745494  0.71480310  0.05105335    -0.28800
C239        C  0.50453059  0.69826363  0.04169100    -0.04900
C240        C  0.50339497  0.67813759  0.04789937     0.07300
C241        C  0.50595453  0.68376190  0.06132292     0.01100
H242        H  0.50348787  0.70082311  0.03112571     0.08800
H243        H  0.50686039  0.67283951  0.06935351     0.07800
N244        N  0.51858086  0.78501525  0.04716822    -0.36000
N245        N  0.52607631  0.79922323  0.05784920    -0.28200
C246        C  0.52919235  0.82137532  0.05486389    -0.03400
C247        C  0.52338968  0.82125765  0.04160782     0.05200
C248        C  0.51651359  0.79778063  0.03702868     0.03300
H249        H  0.53404590  0.83597892  0.06204551     0.08400
H250        H  0.51011097  0.79039741  0.02715975     0.07200
O251        O  0.46634776  0.01230201  0.00639653    -0.72800
O252        O  0.49010049  0.96637801  0.01689726    -0.73800
O253        O  0.51153958  0.01300016  0.00381145    -0.62400
O254        O  0.44499492  0.96582823  0.01972658    -0.70800
O255        O  0.43239704  0.94637456  0.00041963    -0.70400
O256        O  0.49898503  0.99381281  0.98441576    -0.61600
O257        O  0.47767995  0.94748357  0.99739428    -0.74100
O258        O  0.45370706  0.99270941  0.98712374    -0.72900
Cu259      Cu  0.47868638  0.99004349  0.01239261     1.04600
Cu260      Cu  0.46524177  0.96942490  0.99168481     1.04300
C261        C  0.45640717  0.00986738  0.99497571     0.93400
C262        C  0.48764200  0.94965320  0.00873778     0.92500
C263        C  0.51580574  0.01104860  0.99158385     0.84700
C264        C  0.42812028  0.94851793  0.01264402     0.90900
N265        N  0.31274125  0.14504879  0.77179171    -0.27200
N266        N  0.29256825  0.13623236  0.77914445    -0.35000
C267        C  0.29858767  0.13644566  0.79195849     0.01200
C268        C  0.32385070  0.14600536  0.79277869     0.07200
C269        C  0.33221885  0.15120671  0.77975452    -0.05900
H270        H  0.28552154  0.13045683  0.80009892     0.07900
H271        H  0.35096854  0.15868813  0.77624595     0.09100
Cu272      Cu  0.25767549  0.12379399  0.77154008     0.44200
Cu273      Cu  0.31258965  0.14828793  0.75132885     0.42000
Cu274      Cu  0.25234105  0.12353394  0.73582536     0.43900
N275        N  0.22428817  0.10804073  0.76161727    -0.34500
N276        N  0.22230864  0.10747495  0.74853590    -0.28800
C277        C  0.19825544  0.09437514  0.74520212    -0.04900
C278        C  0.18433777  0.08636715  0.75677594     0.07300
C279        C  0.20155499  0.09539810  0.76698013     0.01100
H280        H  0.19162069  0.09034104  0.73506984     0.08800
H281        H  0.19791969  0.09274843  0.77754564     0.07800
N282        N  0.28534850  0.14053930  0.72545499    -0.36000
N283        N  0.30723936  0.14949512  0.73111645    -0.28200
C284        C  0.32478877  0.15893102  0.72167575    -0.03400
C285        C  0.31345696  0.15570941  0.70942829     0.05200
C286        C  0.28837811  0.14405522  0.71225060     0.03300
H287        H  0.34435119  0.16705989  0.72360843     0.08400
H288        H  0.27332804  0.13865317  0.70532782     0.07200
N289        N  0.81402577  0.14024197  0.72740066    -0.27200
N290        N  0.82991736  0.13470846  0.72233426    -0.35000
C291        C  0.83213096  0.13936187  0.70924391     0.01200
C292        C  0.81678806  0.14822324  0.70582520     0.07200
C293        C  0.80553013  0.14843922  0.71764436    -0.05900
H294        H  0.84375690  0.13602664  0.70271123     0.07900
H295        H  0.79146659  0.15318622  0.71908649     0.09100
Cu296      Cu  0.84601502  0.11883851  0.73303056     0.44200
Cu297      Cu  0.80411777  0.13566656  0.74720794     0.42000
Cu298      Cu  0.82787220  0.10498078  0.76748324     0.43900
N299        N  0.85668366  0.09964320  0.74513230    -0.34500
N300        N  0.84991306  0.09428885  0.75769393    -0.28800
C301        C  0.85949078  0.08117331  0.76262717    -0.04900
C302        C  0.87304171  0.07820252  0.75267931     0.07300
C303        C  0.87068061  0.09009394  0.74171115     0.01100
H304        H  0.85626099  0.07392547  0.77263693     0.08800
H305        H  0.87860350  0.09181591  0.73194053     0.07800
N306        N  0.80699251  0.11927226  0.77489145    -0.36000
N307        N  0.79858243  0.13066467  0.76746239    -0.28200
C308        C  0.78740071  0.13930696  0.77528704    -0.03400
C309        C  0.78864038  0.13292581  0.78829872     0.05200
C310        C  0.80122848  0.12024004  0.78766670     0.03300
H311        H  0.77944697  0.14993954  0.77176695     0.08400
H312        H  0.80692181  0.11331844  0.79592105     0.07200
C313        C  0.96130801  0.98275885  0.75887849     0.80400
N314        N  0.98621517  0.99514787  0.76064544    -0.78000
C315        C  0.99863984  0.98286266  0.76162264     0.82800
N316        N  0.98573314  0.95774863  0.76092136    -0.77900
C317        C  0.96074618  0.94497544  0.75938527     0.82900
N318        N  0.94866732  0.95761295  0.75835860    -0.79600
N319        N  0.80657773  0.62989086  0.77000381    -0.27200
N320        N  0.82301765  0.65043457  0.77617323    -0.35000
C321        C  0.82398167  0.64540170  0.78904468     0.01200
C322        C  0.80726534  0.62055901  0.79121935     0.07200
C323        C  0.79637244  0.61128239  0.77893713    -0.05900
H324        H  0.83515037  0.65918010  0.79642811     0.07900
H325        H  0.78190544  0.59250011  0.77669670     0.09100
Cu326      Cu  0.84176681  0.68543044  0.76773481     0.44200
Cu327      Cu  0.79861544  0.62846006  0.74976502     0.42000
Cu328      Cu  0.82801914  0.68904111  0.73395729     0.43900
N329        N  0.85555954  0.71884809  0.75783837    -0.34500
N330        N  0.85047728  0.71998435  0.74522812    -0.28800
C331        C  0.86093026  0.74380316  0.74158354    -0.04900
C332        C  0.87321505  0.75854793  0.75246374     0.07300
C333        C  0.86930010  0.74202587  0.76263277     0.01100
H334        H  0.85873846  0.74979671  0.73187648     0.08800
H335        H  0.87565151  0.74647986  0.77280755     0.07800
N336        N  0.80584557  0.65617890  0.72406603    -0.36000
N337        N  0.79571270  0.63396724  0.72954650    -0.28200
C338        C  0.78429365  0.61676545  0.71996495    -0.03400
C339        C  0.78709057  0.62886508  0.70800920     0.05200
C340        C  0.80083860  0.65377883  0.71099615     0.03300
H341        H  0.77484785  0.59696741  0.72155268     0.08400
H342        H  0.80763081  0.66907697  0.70408574     0.07200
N343        N  0.13742511  0.73844168  0.44560447    -0.27200
N344        N  0.15177923  0.74616914  0.45621875    -0.35000
C345        C  0.14141745  0.72872047  0.46575638     0.01200
C346        C  0.11953307  0.70907977  0.46077634     0.07200
C347        C  0.11768578  0.71598273  0.44799089    -0.05900
H348        H  0.14968323  0.72985579  0.47535326     0.07900
H349        H  0.10325443  0.70527366  0.44081985     0.09100
Cu350      Cu  0.18523600  0.77954097  0.45629820     0.44200
Cu351      Cu  0.14611881  0.75757332  0.42795595     0.42000
Cu352      Cu  0.20435594  0.81485105  0.42482741     0.43900
N353        N  0.21786957  0.81314578  0.45354856    -0.34500
N354        N  0.22484322  0.82602585  0.44235975    -0.28800
C355        C  0.24750588  0.84615030  0.44412105    -0.04900
C356        C  0.25527918  0.84574477  0.45696519     0.07300
C357        C  0.23585660  0.82466146  0.46264893     0.01100
H358        H  0.25799958  0.85948492  0.43642498     0.08800
H359        H  0.23486558  0.81785276  0.47263143     0.07800
N360        N  0.18004253  0.79768225  0.40904073    -0.36000
N361        N  0.15870956  0.77668715  0.41036745    -0.28200
C362        C  0.14732613  0.76982751  0.39852897    -0.03400
C363        C  0.16207595  0.78740394  0.38920096     0.05200
C364        C  0.18277083  0.80481018  0.39623282     0.03300
H365        H  0.12950549  0.75326767  0.39688692     0.08400
H366        H  0.19889447  0.82114731  0.39234007     0.07200
N367        N  0.71774047  0.15702241  0.56082720    -0.27200
N368        N  0.72413034  0.17055983  0.54987301    -0.35000
C369        C  0.70572214  0.15894037  0.54091276     0.01200
C370        C  0.68691488  0.13728964  0.54661504     0.07200
C371        C  0.69533303  0.13674389  0.55919800    -0.05900
H372        H  0.70593914  0.16580597  0.53102703     0.07900
H373        H  0.68618762  0.12235618  0.56659414     0.09100
Cu374      Cu  0.75767332  0.20416793  0.54776965     0.44200
Cu375      Cu  0.73891062  0.16503406  0.57772391     0.42000
Cu376      Cu  0.79692559  0.21991187  0.57702028     0.43900
N377        N  0.79213307  0.23680770  0.54977124    -0.34500
N378        N  0.80584199  0.24211779  0.56060305    -0.28800
C379        C  0.82604700  0.26470978  0.55944953    -0.04900
C380        C  0.82537425  0.27427945  0.54725037     0.07300
C381        C  0.80362044  0.25609034  0.54130981     0.01100
H382        H  0.84006414  0.27362570  0.56706013     0.08800
H383        H  0.79621283  0.25718794  0.53180646     0.07800
N384        N  0.78463830  0.19702311  0.59322707    -0.36000
N385        N  0.76285018  0.17643087  0.59359474    -0.28200
C386        C  0.75976371  0.16579515  0.60556146    -0.03400
C387        C  0.78066806  0.18067005  0.61311759     0.05200
C388        C  0.79613110  0.20022140  0.60490356     0.03300
H389        H  0.74336128  0.14876010  0.60857887     0.08400
H390        H  0.81448847  0.21553409  0.60708567     0.07200
N391        N  0.40951306  0.19399167  0.60005594    -0.27200
N392        N  0.40363392  0.21125257  0.59906161    -0.35000
C393        C  0.39529362  0.21386876  0.61086794     0.01200
C394        C  0.39602522  0.19748761  0.61977767     0.07200
C395        C  0.40502864  0.18507897  0.61252240    -0.05900
H396        H  0.38833648  0.22614897  0.61261702     0.07900
H397        H  0.40785566  0.17044444  0.61596723     0.09100
Cu398      Cu  0.40645882  0.22990627  0.58164610     0.44200
Cu399      Cu  0.42215424  0.18269629  0.58425047     0.42000
Cu400      Cu  0.43022463  0.21432770  0.55282235     0.43900
N401        N  0.41257712  0.24735142  0.56345555    -0.34500
N402        N  0.42171314  0.24205752  0.55299022    -0.28800
C403        C  0.42481808  0.25770737  0.54307533    -0.04900
C404        C  0.41712739  0.27355065  0.54748500     0.07300
C405        C  0.40952544  0.26641014  0.56047996     0.01100
H406        H  0.43244686  0.25774001  0.53342939     0.08800
H407        H  0.40333444  0.27510079  0.56750973     0.07800
N408        N  0.43533659  0.18457046  0.55531328    -0.36000
N409        N  0.43250538  0.17327120  0.56681220    -0.28200
C410        C  0.43613667  0.15423896  0.56506756    -0.03400
C411        C  0.44157071  0.15346349  0.55181389     0.05200
C412        C  0.44078765  0.17291526  0.54590560     0.03300
H413        H  0.43400501  0.14139126  0.57282007     0.08400
H414        H  0.44371529  0.17808713  0.53551660     0.07200
N415        N  0.53338481  0.77702677  0.40291293    -0.27200
N416        N  0.52876170  0.75417285  0.40166873    -0.35000
C417        C  0.53483725  0.75108823  0.38929466     0.01200
C418        C  0.54380578  0.77321452  0.38242219     0.07200
C419        C  0.54249439  0.78916365  0.39142714    -0.05900
H420        H  0.53236984  0.73383168  0.38559872     0.07900
H421        H  0.54792996  0.80829794  0.38984005     0.09100
Cu422      Cu  0.51435799  0.72882247  0.41706534     0.44200
Cu423      Cu  0.52657118  0.79038040  0.42003989     0.42000
Cu424      Cu  0.49709478  0.74806329  0.44760993     0.43900
N425        N  0.50124408  0.70747124  0.43410590    -0.34500
N426        N  0.49470163  0.71406550  0.44514683    -0.28800
C427        C  0.48862826  0.69638494  0.45440169    -0.04900
C428        C  0.49168224  0.67788285  0.44893245     0.07300
C429        C  0.49962076  0.68560286  0.43604813     0.01100
H430        H  0.48370350  0.69764864  0.46455311     0.08800
H431        H  0.50451269  0.67632528  0.42867061     0.07800
N432        N  0.50486461  0.78444294  0.44741508    -0.36000
N433        N  0.51624423  0.79981095  0.43742829    -0.28200
C434        C  0.51877617  0.82184631  0.44018227    -0.03400
C435        C  0.50830734  0.82038491  0.45246712     0.05200
C436        C  0.49969016  0.79637741  0.45680835     0.03300
H437        H  0.52694042  0.83754310  0.43350121     0.08400
H438        H  0.49042938  0.78816511  0.46609348     0.07200
O439        O  0.51411998  0.01815123  0.49717717    -0.72800
O440        O  0.44413631  0.97604973  0.48492532    -0.73800
O441        O  0.47179611  0.02240702  0.49822135    -0.62400
O442        O  0.48664572  0.97176040  0.48403013    -0.70800
O443        O  0.47605134  0.95228148  0.50338767    -0.70400
O444        O  0.46186883  0.00308642  0.51763926    -0.61600
O445        O  0.43351826  0.95676871  0.50434787    -0.74100
O446        O  0.50428450  0.99851608  0.51653965    -0.72900
Cu447      Cu  0.47949570  0.99772537  0.49041479     1.04600
Cu448      Cu  0.46855020  0.97698211  0.51115901     1.04300
C449        C  0.52027747  0.01522394  0.50881505     0.93400
C450        C  0.42773451  0.95959303  0.49256350     0.92500
C451        C  0.46480434  0.02094457  0.51029445     0.84700
C452        C  0.48364616  0.95392704  0.49144576     0.90900
N453        N  0.16233675  0.41548119  0.40004963    -0.27200
N454        N  0.18144934  0.41223025  0.40011952    -0.35000
C455        C  0.18454649  0.40591025  0.38780778     0.01200
C456        C  0.16647039  0.40506343  0.37955827     0.07200
C457        C  0.15280992  0.41138749  0.38771650    -0.05900
H458        H  0.19871366  0.40183201  0.38513460     0.07900
H459        H  0.13725709  0.41323547  0.38496309     0.09100
Cu460      Cu  0.20266506  0.41686270  0.41690555     0.44200
Cu461      Cu  0.14995368  0.42540333  0.41663275     0.42000
Cu462      Cu  0.18733532  0.43985831  0.44624962     0.43900
N463        N  0.22193247  0.42471477  0.43475814    -0.34500
N464        N  0.21651415  0.43336211  0.44539853    -0.28800
C465        C  0.23279909  0.43716658  0.45510730    -0.04900
C466        C  0.24942175  0.43069444  0.45037421     0.07300
C467        C  0.24178567  0.42276338  0.43743312     0.01100
H468        H  0.23231905  0.44395673  0.46491390     0.08800
H469        H  0.25039090  0.41657429  0.43034101     0.07800
N470        N  0.15627006  0.44325437  0.44493724    -0.36000
N471        N  0.14219830  0.43714986  0.43421100    -0.28200
C472        C  0.12291462  0.44012261  0.43668744    -0.03400
C473        C  0.12497896  0.44865011  0.44958981     0.05200
C474        C  0.14644783  0.45059856  0.45449099     0.03300
H475        H  0.10856796  0.43650153  0.42956617     0.08400
H476        H  0.15399198  0.45626143  0.46439353     0.07200
N477        N  0.74972488  0.54889716  0.59458335    -0.27200
N478        N  0.73053316  0.55192467  0.59415178    -0.35000
C479        C  0.72827709  0.56049238  0.60602065     0.01200
C480        C  0.74720741  0.56315956  0.61426401     0.07200
C481        C  0.76022628  0.55532799  0.60663822    -0.05900
H482        H  0.71434956  0.56510951  0.60832837     0.07900
H483        H  0.77622333  0.55434203  0.60950474     0.09100
Cu484      Cu  0.71000438  0.54508899  0.57688731     0.44200
Cu485      Cu  0.76205466  0.53838687  0.57841298     0.42000
Cu486      Cu  0.73603912  0.53535235  0.54597285     0.43900
N487        N  0.69331177  0.53764818  0.55831312    -0.34500
N488        N  0.70268180  0.53480411  0.54712723    -0.28800
C489        C  0.68651926  0.53011584  0.53717196    -0.04900
C490        C  0.66597802  0.52986204  0.54236977     0.07300
C491        C  0.67101661  0.53465813  0.55578607     0.01100
H492        H  0.68920570  0.52632900  0.52701359     0.08800
H493        H  0.65930376  0.53591003  0.56323352     0.07800
N494        N  0.76696090  0.53208910  0.54910934    -0.36000
N495        N  0.77548487  0.53228708  0.56113983    -0.28200
C496        C  0.79456426  0.52858821  0.56025356    -0.03400
C497        C  0.79840725  0.52588994  0.54701419     0.05200
C498        C  0.78073013  0.52843864  0.54016459     0.03300
H499        H  0.80512180  0.52833655  0.56866738     0.08400
H500        H  0.77779566  0.52723174  0.52952523     0.07200
O501        O  0.99999780  0.53316893  0.50829969    -0.72800
O502        O  0.95805346  0.46319664  0.52051459    -0.73800
O503        O  0.00478095  0.49079349  0.50738782    -0.62400
O504        O  0.95275872  0.50527585  0.52079318    -0.70800
O505        O  0.93480078  0.49511672  0.50102250    -0.70400
O506        O  0.98535815  0.48054781  0.48800613    -0.61600
O507        O  0.93883545  0.45266118  0.50105432    -0.74100
O508        O  0.98159446  0.52334788  0.48861307    -0.72900
Cu509      Cu  0.97955121  0.49847649  0.51494826     1.04600
Cu510      Cu  0.95954374  0.48754900  0.49400560     1.04300
C511        C  0.99771937  0.53943843  0.49656664     0.93400
C512        C  0.94148714  0.44690296  0.51288684     0.92500
C513        C  0.00324869  0.48359724  0.49532320     0.84700
C514        C  0.93534708  0.50217086  0.51295197     0.90900
O515        O  0.46971379  0.50306628  0.47852376    -0.72800
O516        O  0.45041067  0.43571107  0.49294981    -0.73800
O517        O  0.42500621  0.45694282  0.48017068    -0.62400
O518        O  0.49540874  0.48192105  0.49096983    -0.70800
O519        O  0.48791739  0.49284546  0.51054905    -0.70400
O520        O  0.41708948  0.46706553  0.49989650    -0.61600
O521        O  0.44323223  0.44683362  0.51254999    -0.74100
O522        O  0.46188814  0.51324270  0.49825151    -0.72900
Cu523      Cu  0.46037807  0.46899836  0.48495995     1.04600
Cu524      Cu  0.45227345  0.48033067  0.50597941     1.04300
C525        C  0.46847039  0.51869600  0.48613499     0.93400
C526        C  0.44418240  0.43082966  0.50518703     0.92500
C527        C  0.41003542  0.45844079  0.48816058     0.84700
C528        C  0.50282275  0.49123576  0.50253456     0.90900
C529        C  0.84348352  0.50340261  0.54335217    -0.27500
C530        C  0.85684128  0.51643435  0.53205006     0.02100
C531        C  0.85029886  0.53191232  0.52537554     0.30200
C532        C  0.83070360  0.53428719  0.53008884    -0.19300
C533        C  0.81773277  0.52170781  0.54158857    -0.28700
C534        C  0.82408733  0.50594710  0.54814320     0.44300
C535        C  0.87725997  0.51337444  0.52717469     0.05400
O536        O  0.86323970  0.54513127  0.51438665    -0.57200
H537        H  0.82614420  0.54657611  0.52498992     0.18400
O538        O  0.81129906  0.49271603  0.55916241    -0.63900
H539        H  0.84799231  0.49104408  0.54841812     0.16800
C540        C  0.89747591  0.51865314  0.53538529     0.29100
C541        C  0.91641274  0.51527107  0.53059261    -0.24800
C542        C  0.91541896  0.50632646  0.51765833    -0.24100
C543        C  0.89494710  0.50096394  0.50947259     0.40500
C544        C  0.87624350  0.50464003  0.51424971    -0.26500
O545        O  0.89926553  0.52792012  0.54795544    -0.58400
H546        H  0.93187243  0.51962474  0.53706356     0.16200
O547        O  0.89290926  0.49214282  0.49676761    -0.59900
H548        H  0.86063856  0.50028151  0.50788320     0.14600
H549        H  0.79667793  0.47749270  0.55564362     0.46500
H550        H  0.89453979  0.51376102  0.55402180     0.41800
H551        H  0.88271711  0.47386068  0.49757560     0.45300
H552        H  0.87791099  0.56026652  0.51794151     0.36800
C553        C  0.62073617  0.52755211  0.51642364    -0.27500
C554        C  0.59846489  0.51609973  0.52364895     0.02100
C555        C  0.59843158  0.50820002  0.53675634     0.30200
C556        C  0.62049258  0.51256570  0.54257571    -0.19300
C557        C  0.64290835  0.52459464  0.53552112    -0.28700
C558        C  0.64285405  0.53187072  0.52226079     0.44300
C559        C  0.57523247  0.51206972  0.51746264     0.05400
O560        O  0.57667297  0.49513226  0.54371901    -0.57200
H561        H  0.61994182  0.50621255  0.55264583     0.18400
O562        O  0.66431777  0.54371513  0.51500055    -0.63900
H563        H  0.62105409  0.53357848  0.50630038     0.16800
C564        C  0.56060481  0.51998962  0.52387116     0.29100
C565        C  0.53742586  0.51352797  0.51872810    -0.24800
C566        C  0.52854389  0.49972020  0.50692736    -0.24100
C567        C  0.54406947  0.49342251  0.49995669     0.40500
C568        C  0.56708365  0.49943091  0.50530154    -0.26500
O569        O  0.56868410  0.53385536  0.53528827    -0.58400
H570        H  0.52627267  0.51921856  0.52411596     0.16200
O571        O  0.53654008  0.48036929  0.48826465    -0.59900
H572        H  0.57825582  0.49350351  0.50013023     0.14600
H573        H  0.67248102  0.56136613  0.51768379     0.46500
H574        H  0.57706635  0.55132603  0.53228303     0.41800
H575        H  0.54341597  0.49309803  0.48116167     0.45300
H576        H  0.57817065  0.50579783  0.55136302     0.36800
C577        C  0.06570408  0.44346057  0.46209128    -0.27500
C578        C  0.07480341  0.46446979  0.47026617     0.02100
C579        C  0.10059695  0.48007757  0.47177562     0.30200
C580        C  0.11677573  0.47452565  0.46517251    -0.19300
C581        C  0.10760695  0.45383853  0.45674097    -0.28700
C582        C  0.08182280  0.43820612  0.45528492     0.44300
C583        C  0.05710237  0.47009955  0.47680999     0.05400
O584        O  0.11018397  0.50106052  0.47943714    -0.57200
H585        H  0.13655836  0.48678700  0.46636614     0.18400
O586        O  0.07211450  0.41748517  0.44740708    -0.63900
H587        H  0.04593835  0.43098253  0.46099772     0.16800
C588        C  0.03882678  0.47106986  0.46927523     0.29100
C589        C  0.02170643  0.47554130  0.47551665    -0.24800
C590        C  0.02218788  0.47909161  0.48935497    -0.24100
C591        C  0.04075346  0.47849653  0.49691258     0.40500
C592        C  0.05794705  0.47391953  0.49062707    -0.26500
O593        O  0.03813299  0.46858414  0.45569231    -0.58400
H594        H  0.00802607  0.47635035  0.46937088     0.16200
O595        O  0.04190462  0.48165219  0.51043946    -0.59900
H596        H  0.07175891  0.47299013  0.49659140     0.14600
H597        H  0.07081438  0.40419871  0.45326038     0.46500
H598        H  0.02330246  0.45216574  0.45379732     0.41800
H599        H  0.05414399  0.49946583  0.51189245     0.45300
H600        H  0.11157506  0.51414275  0.47338165     0.36800
C601        C  0.34194297  0.43946576  0.48746805    -0.27500
C602        C  0.33833139  0.44112054  0.47381766     0.02100
C603        C  0.35807494  0.44765740  0.46497215     0.30200
C604        C  0.38102055  0.45260201  0.46979227    -0.19300
C605        C  0.38485592  0.45123242  0.48345193    -0.28700
C606        C  0.36491869  0.44427028  0.49230314     0.44300
C607        C  0.31426014  0.43683302  0.46881440     0.05400
O608        O  0.35550435  0.45068375  0.45167520    -0.57200
H609        H  0.39610501  0.45828185  0.46280895     0.18400
O610        O  0.36763330  0.44212241  0.50567509    -0.63900
H611        H  0.32687291  0.43438111  0.49438104     0.16800
C612        C  0.30048525  0.41818083  0.45938608     0.29100
C613        C  0.27929605  0.41620245  0.45364461    -0.24800
C614        C  0.27113452  0.43240064  0.45729955    -0.24100
C615        C  0.28444630  0.45046795  0.46717053     0.40500
C616        C  0.30572465  0.45246657  0.47286833    -0.26500
O617        O  0.30777160  0.40195615  0.45558796    -0.58400
H618        H  0.26922338  0.40189482  0.44628583     0.16200
O619        O  0.27751940  0.46695523  0.47097796    -0.59900
H620        H  0.31614024  0.46690723  0.48011954     0.14600
H621        H  0.36512168  0.42533116  0.50683160     0.46500
H622        H  0.30128430  0.38899829  0.46256992     0.41800
H623        H  0.28554180  0.48074965  0.46449694     0.45300
H624        H  0.35488233  0.43632079  0.44720749     0.36800
C625        C  0.49142972  0.89795837  0.48863010    -0.27500
C626        C  0.49784331  0.89893908  0.47519496     0.02100
C627        C  0.49984283  0.91820688  0.46716857     0.30200
C628        C  0.49539800  0.93603989  0.47263668    -0.19300
C629        C  0.48885174  0.93505628  0.48609516    -0.28700
C630        C  0.48698973  0.91573756  0.49411120     0.44300
C631        C  0.50113962  0.87898965  0.46962787     0.05400
O632        O  0.50457838  0.91885193  0.45380142    -0.57200
H633        H  0.49667947  0.95044230  0.46620197     0.18400
O634        O  0.48031443  0.91362210  0.50724462    -0.63900
H635        H  0.48975574  0.88320974  0.49492489     0.16800
C636        C  0.52262762  0.88432346  0.46253942     0.29100
C637        C  0.52477004  0.86503722  0.45712183    -0.24800
C638        C  0.50600028  0.84020369  0.45894286    -0.24100
C639        C  0.48484277  0.83485223  0.46636429     0.40500
C640        C  0.48255146  0.85415810  0.47161727    -0.26500
O641        O  0.54176311  0.90826331  0.46096586    -0.58400
H642        H  0.54132473  0.86952953  0.45158436     0.16200
O643        O  0.46591497  0.81090617  0.46820394    -0.59900
H644        H  0.46592201  0.84971709  0.47706738     0.14600
H645        H  0.49612699  0.92169893  0.51225361     0.46500
H646        H  0.55163521  0.91224140  0.46924738     0.41800
H647        H  0.45481775  0.80716776  0.46044852     0.45300
H648        H  0.52100010  0.93399755  0.45241931     0.36800
C649        C  0.47055211  0.62179920  0.47139150    -0.27500
C650        C  0.48569521  0.61292486  0.46688997     0.02100
C651        C  0.50341971  0.62614481  0.45697570     0.30200
C652        C  0.50517728  0.64725170  0.45134519    -0.19300
C653        C  0.48968669  0.65589827  0.45556454    -0.28700
C654        C  0.47244599  0.64312484  0.46582094     0.44300
C655        C  0.48201280  0.58914661  0.47195158     0.05400
O656        O  0.51904771  0.61846004  0.45264911    -0.57200
H657        H  0.51892378  0.65698258  0.44368884     0.18400
O658        O  0.45679776  0.65074995  0.47018118    -0.63900
H659        H  0.45665437  0.61171174  0.47893551     0.16800
C660        C  0.48279786  0.58498804  0.48563176     0.29100
C661        C  0.47895462  0.56218446  0.49005362    -0.24800
C662        C  0.47408976  0.54311967  0.48100755    -0.24100
C663        C  0.47342474  0.54741090  0.46729385     0.40500
C664        C  0.47739814  0.57024747  0.46289525    -0.26500
O665        O  0.48812516  0.60337358  0.49470218    -0.58400
H666        H  0.47973383  0.55943326  0.50063417     0.16200
O667        O  0.46841698  0.52932114  0.45809163    -0.59900
H668        H  0.47642587  0.57306695  0.45233778     0.14600
H669        H  0.44239473  0.64281398  0.46407851     0.46500
H670        H  0.47215050  0.59849312  0.49909410     0.41800
H671        H  0.45019207  0.52023896  0.45692448     0.45300
H672        H  0.53381239  0.62708444  0.45847264     0.36800
C673        C  0.43230061  0.38034978  0.53006720    -0.27500
C674        C  0.42989418  0.36144509  0.52167573     0.02100
C675        C  0.43142744  0.36509672  0.50781791     0.30200
C676        C  0.43573241  0.38761008  0.50257230    -0.19300
C677        C  0.43853762  0.40676658  0.51096903    -0.28700
C678        C  0.43650599  0.40278166  0.52487053     0.44300
C679        C  0.42587092  0.33812071  0.52762660     0.05400
O680        O  0.42772849  0.34638796  0.49933874    -0.57200
H681        H  0.43683817  0.39001160  0.49187989     0.18400
O682        O  0.43946207  0.42093807  0.53355002    -0.63900
H683        H  0.43126228  0.37783508  0.54075775     0.16800
C684        C  0.44206422  0.32945000  0.52495155     0.29100
C685        C  0.43848835  0.30798081  0.53115915    -0.24800
C686        C  0.41923225  0.29513770  0.54036234    -0.24100
C687        C  0.40288758  0.30372005  0.54295009     0.40500
C688        C  0.40635082  0.32507650  0.53664226    -0.26500
O689        O  0.46199597  0.34231205  0.51666673    -0.58400
H690        H  0.45146502  0.30195241  0.52913001     0.16200
O691        O  0.38339828  0.29139312  0.55156597    -0.59900
H692        H  0.39374032  0.33152316  0.53880784     0.14600
H693        H  0.42243049  0.41685252  0.53578583     0.46500
H694        H  0.47560192  0.35438036  0.52247961     0.41800
H695        H  0.36984160  0.27823177  0.54615777     0.45300
H696        H  0.44386106  0.35231147  0.49486690     0.36800
C697        C  0.44555557  0.05597021  0.53338800    -0.27500
C698        C  0.45450880  0.07839373  0.52656136     0.02100
C699        C  0.46662388  0.08180772  0.51429612     0.30200
C700        C  0.46951559  0.06282276  0.50902359    -0.19300
C701        C  0.46058114  0.04030617  0.51586252    -0.28700
C702        C  0.44846523  0.03704128  0.52817383     0.44300
C703        C  0.45179900  0.09826698  0.53269192     0.05400
O704        O  0.47699665  0.10414668  0.50782575    -0.57200
H705        H  0.47930805  0.06601658  0.49969168     0.18400
O706        O  0.43961952  0.01557708  0.53532439    -0.63900
H707        H  0.43624688  0.05312820  0.54285928     0.16800
C708        C  0.43991768  0.10891738  0.52597660     0.29100
C709        C  0.43720689  0.12728104  0.53219758    -0.24800
C710        C  0.44566013  0.13484908  0.54525095    -0.24100
C711        C  0.45748449  0.12410977  0.55196530     0.40500
C712        C  0.46044060  0.10599372  0.54568508    -0.26500
O713        O  0.43027488  0.10103824  0.51349371    -0.58400
H714        H  0.42777432  0.13505930  0.52693614     0.16200
O715        O  0.46648427  0.13131712  0.56461397    -0.59900
H716        H  0.46962271  0.09797077  0.55097545     0.14600
H717        H  0.42234118  0.00468793  0.53223753     0.46500
H718        H  0.41346531  0.08650667  0.51495019     0.41800
H719        H  0.48315559  0.14623656  0.56347811     0.45300
H720        H  0.46716387  0.10089891  0.49957774     0.36800
C721        C  0.88648470  0.38174272  0.51768965    -0.27500
C722        C  0.89416966  0.37344286  0.52858425     0.02100
C723        C  0.91758622  0.38939173  0.53425595     0.30200
C724        C  0.93285676  0.41314403  0.52895232    -0.19300
C725        C  0.92518021  0.42142274  0.51800115    -0.28700
C726        C  0.90164299  0.40547274  0.51244730     0.44300
C727        C  0.87750353  0.34795334  0.53365415     0.05400
O728        O  0.92618275  0.38148923  0.54451998    -0.57200
H729        H  0.95089972  0.42502569  0.53336673     0.18400
O730        O  0.89302022  0.41295775  0.50202852    -0.63900
H731        H  0.86841996  0.36981588  0.51330541     0.16800
C732        C  0.87038224  0.34343378  0.54712613     0.29100
C733        C  0.85373693  0.31929670  0.55141599    -0.24800
C734        C  0.84329858  0.29942832  0.54238195    -0.24100
C735        C  0.85036145  0.30390719  0.52893029     0.40500
C736        C  0.86738376  0.32797759  0.52467641    -0.26500
O737        O  0.87886268  0.36251632  0.55609944    -0.58400
H738        H  0.84836311  0.31624594  0.56179467     0.16200
O739        O  0.84097196  0.28490625  0.51987692    -0.59900
H740        H  0.87266265  0.33109824  0.51428447     0.14600
H741        H  0.88403447  0.42036019  0.50619564     0.46500
H742        H  0.86693970  0.36833039  0.55561643     0.41800
H743        H  0.85169503  0.27768794  0.52057354     0.45300
H744        H  0.92774837  0.39200174  0.55225188     0.36800
C745        C  0.61966452  0.08648617  0.54265496    -0.27500
C746        C  0.61854213  0.08110597  0.52906971     0.02100
C747        C  0.63997575  0.09427855  0.52121561     0.30200
C748        C  0.66209545  0.11276577  0.52697833    -0.19300
C749        C  0.66322603  0.11821708  0.54059843    -0.28700
C750        C  0.64167081  0.10493676  0.54842147     0.44300
C751        C  0.59433564  0.06330574  0.52309089     0.05400
O752        O  0.63943880  0.08927386  0.50790305    -0.57200
H753        H  0.67846471  0.12261820  0.52082185     0.18400
O754        O  0.64161300  0.11035093  0.56162870    -0.63900
H755        H  0.60315578  0.07689507  0.54873925     0.16800
C756        C  0.58038639  0.03866687  0.52759678     0.29100
C757        C  0.55638773  0.02298439  0.52273186    -0.24800
C758        C  0.54597494  0.03163540  0.51342602    -0.24100
C759        C  0.56010595  0.05629713  0.50887719     0.40500
C760        C  0.58412425  0.07181360  0.51363282    -0.26500
O761        O  0.59025482  0.02970710  0.53657304    -0.58400
H762        H  0.54588232  0.00405843  0.52627556     0.16200
O763        O  0.55030185  0.06577180  0.50018886    -0.59900
H764        H  0.59448679  0.09089279  0.51030890     0.14600
H765        H  0.63748859  0.12357936  0.56182550     0.46500
H766        H  0.58236287  0.02916911  0.54520295     0.41800
H767        H  0.54156039  0.07177915  0.50585732     0.45300
H768        H  0.64229154  0.07520152  0.50737860     0.36800
C769        C  0.31439490  0.87082258  0.47717733    -0.27500
C770        C  0.32739279  0.89583913  0.47344225     0.02100
C771        C  0.31636113  0.90439885  0.46438412     0.30200
C772        C  0.29288155  0.88796750  0.45913116    -0.19300
C773        C  0.27985676  0.86291937  0.46289498    -0.28700
C774        C  0.29090124  0.85443416  0.47200646     0.44300
C775        C  0.35287898  0.91248212  0.47853586     0.05400
O776        O  0.32839842  0.92877440  0.46055617    -0.57200
H777        H  0.28476065  0.89489666  0.45216626     0.18400
O778        O  0.27938975  0.82996792  0.47558397    -0.63900
H779        H  0.32280277  0.86373771  0.48384257     0.16800
C780        C  0.35828711  0.91435154  0.49223577     0.29100
C781        C  0.38265228  0.92983992  0.49668991    -0.24800
C782        C  0.40201303  0.94356327  0.48764665    -0.24100
C783        C  0.39651199  0.94141073  0.47391528     0.40500
C784        C  0.37219481  0.92606068  0.46950772    -0.26500
O785        O  0.33973313  0.90181611  0.50136695    -0.58400
H786        H  0.38633093  0.93119791  0.50727351     0.16200
O787        O  0.41475777  0.95394471  0.46463964    -0.59900
H788        H  0.36848967  0.92441385  0.45892039     0.14600
H789        H  0.28386431  0.82189535  0.46855388     0.46500
H790        H  0.34194927  0.88825328  0.50469103     0.41800
H791        H  0.42077475  0.94261344  0.46232846     0.45300
H792        H  0.32559098  0.93760876  0.46788255     0.36800
C793        C  0.07901733  0.65956250  0.48594055    -0.27500
C794        C  0.06758150  0.63833172  0.47782990     0.02100
C795        C  0.07419068  0.64052721  0.46429853     0.30200
C796        C  0.09119573  0.66362974  0.45898923    -0.19300
C797        C  0.10244200  0.68489852  0.46701727    -0.28700
C798        C  0.09646672  0.68270688  0.48064563     0.44300
C799        C  0.04885488  0.61389260  0.48340574     0.05400
O800        O  0.06425508  0.62012922  0.45616115    -0.57200
H801        H  0.09583321  0.66482556  0.44853390     0.18400
O802        O  0.10700273  0.70308779  0.48879406    -0.63900
H803        H  0.07407564  0.65829983  0.49634784     0.16800
C804        C  0.05400501  0.60417768  0.49471972     0.29100
C805        C  0.03691406  0.58015322  0.49902559    -0.24800
C806        C  0.01447615  0.56537411  0.49221409    -0.24100
C807        C  0.00891626  0.57551284  0.48120867     0.40500
C808        C  0.02599520  0.59955810  0.47692761    -0.26500
O809        O  0.07634886  0.61737665  0.50111514    -0.58400
H810        H  0.04166899  0.57281512  0.50750327     0.16200
O811        O  0.98700838  0.56206991  0.47445872    -0.59900
H812        H  0.02149062  0.60694902  0.46837475     0.14600
H813        H  0.09621184  0.71021792  0.48804012     0.46500
H814        H  0.07276081  0.62327468  0.50949114     0.41800
H815        H  0.97529942  0.56577800  0.47900172     0.45300
H816        H  0.07471944  0.61275853  0.45752124     0.36800
C817        C  0.76223775  0.61702175  0.67282132    -0.27500
C818        C  0.76750773  0.59900604  0.66854450     0.02100
C819        C  0.77866304  0.59037214  0.67745863     0.30200
C820        C  0.78424802  0.59966705  0.69044398    -0.19300
C821        C  0.77931164  0.61794802  0.69463726    -0.28700
C822        C  0.76815973  0.62657318  0.68574150     0.44300
C823        C  0.76209505  0.58996161  0.65464883     0.05400
O824        O  0.78452384  0.57313706  0.67351445    -0.57200
H825        H  0.79312183  0.59311279  0.69713476     0.18400
O826        O  0.76305419  0.64439715  0.68957367    -0.63900
H827        H  0.75396296  0.62407045  0.66603476     0.16800
C828        C  0.73805580  0.57920638  0.64935413     0.29100
C829        C  0.73347281  0.57062350  0.63619844    -0.24800
C830        C  0.75268571  0.57282294  0.62808746    -0.24100
C831        C  0.77690953  0.58426306  0.63336537     0.40500
C832        C  0.78134680  0.59248798  0.64654180    -0.26500
O833        O  0.71875328  0.57604554  0.65714664    -0.58400
H834        H  0.71472490  0.56185356  0.63243405     0.16200
O835        O  0.79657850  0.58802686  0.62572763    -0.59900
H836        H  0.80004673  0.60125070  0.65040202     0.14600
H837        H  0.74568512  0.63514013  0.69275898     0.46500
H838        H  0.71530117  0.58901188  0.65422656     0.41800
H839        H  0.80271285  0.60431465  0.62139078     0.45300
H840        H  0.76887123  0.55693616  0.67421692     0.36800
C841        C  0.90986252  0.87704434  0.76092357    -0.27500
C842        C  0.92229031  0.86543064  0.75609979     0.02100
C843        C  0.94726766  0.88014005  0.75224485     0.30200
C844        C  0.95944525  0.90592225  0.75334785    -0.19300
C845        C  0.94710700  0.91760975  0.75823849    -0.28700
C846        C  0.92201541  0.90289517  0.76197695     0.44300
C847        C  0.90922301  0.83801321  0.75519676     0.05400
O848        O  0.96006373  0.86948747  0.74750430    -0.57200
H849        H  0.97864591  0.91680621  0.75030226     0.18400
O850        O  0.90948115  0.91347093  0.76719402    -0.63900
H851        H  0.89060008  0.86604097  0.76383552     0.16800
C852        C  0.89726182  0.82299332  0.76633506     0.29100
C853        C  0.88590163  0.79720036  0.76535362    -0.24800
C854        C  0.88596352  0.78591918  0.75330503    -0.24100
C855        C  0.89798912  0.80101793  0.74217130     0.40500
C856        C  0.90926672  0.82675812  0.74315347    -0.26500
O857        O  0.89747904  0.83342015  0.77836132    -0.58400
H858        H  0.87678482  0.78601391  0.77403644     0.16200
O859        O  0.89937398  0.79094276  0.73034215    -0.59900
H860        H  0.91827001  0.83801991  0.73446928     0.14600
H861        H  0.89834389  0.91262262  0.75998398     0.46500
H862        H  0.88049353  0.83037686  0.77950583     0.41800
H863        H  0.91422001  0.78940721  0.73113789     0.45300
H864        H  0.96656534  0.86555613  0.75551428     0.36800
C865        C  0.91252512  0.99960414  0.75107955    -0.27500
C866        C  0.92486754  0.02459162  0.75483938     0.02100
C867        C  0.94925666  0.03587027  0.75963493     0.30200
C868        C  0.96077756  0.02203357  0.76090225    -0.19300
C869        C  0.94837764  0.99679989  0.75736187    -0.28700
C870        C  0.92401609  0.98568231  0.75230633     0.44300
C871        C  0.91190833  0.03856408  0.75412335     0.05400
O872        O  0.96201159  0.06045066  0.76310672    -0.57200
H873        H  0.97949631  0.03116568  0.76474550     0.18400
O874        O  0.91145880  0.96146507  0.74818030    -0.63900
H875        H  0.89373164  0.99072568  0.74735352     0.16800
C876        C  0.90236401  0.04129263  0.74203822     0.29100
C877        C  0.88993620  0.05439524  0.74169498    -0.24800
C878        C  0.88660563  0.06474318  0.75334501    -0.24100
C879        C  0.89653712  0.06222744  0.76540952     0.40500
C880        C  0.90891974  0.04911853  0.76572369    -0.26500
O881        O  0.90584575  0.03193609  0.73045435    -0.58400
H882        H  0.88263055  0.05614243  0.73228678     0.16200
O883        O  0.89470755  0.07282584  0.77693438    -0.59900
H884        H  0.91622031  0.04714444  0.77509215     0.14600
H885        H  0.89918790  0.95225587  0.75528609     0.46500
H886        H  0.88973297  0.01671136  0.72859348     0.41800
H887        H  0.90874718  0.09019513  0.77666236     0.45300
H888        H  0.96870259  0.06955489  0.75463668     0.36800
C889        C  0.80557221  0.19130823  0.64831434    -0.27500
C890        C  0.79555547  0.16692142  0.65276979     0.02100
C891        C  0.77982263  0.14710312  0.64437792     0.30200
C892        C  0.77488859  0.15188167  0.63153454    -0.19300
C893        C  0.78554352  0.17629449  0.62688512    -0.28700
C894        C  0.80071870  0.19612625  0.63547464     0.44300
C895        C  0.80146310  0.16248984  0.66627791     0.05400
O896        O  0.76842426  0.12311731  0.64886483    -0.57200
H897        H  0.76294102  0.13638601  0.62516129     0.18400
O898        O  0.80987298  0.22023537  0.63168404    -0.63900
H899        H  0.81733727  0.20670042  0.65480423     0.16800
C900        C  0.81236873  0.14811188  0.66832986     0.29100
C901        C  0.81724389  0.14366988  0.68122890    -0.24800
C902        C  0.81201435  0.15396500  0.69226890    -0.24100
C903        C  0.80218587  0.16940138  0.69009739     0.40500
C904        C  0.79676574  0.17331750  0.67719165    -0.26500
O905        O  0.81850868  0.13846582  0.65778736    -0.58400
H906        H  0.82494227  0.13190545  0.68251519     0.16200
O907        O  0.79805148  0.18105002  0.70042293    -0.59900
H908        H  0.78883329  0.18486072  0.67568986     0.14600
H909        H  0.82794005  0.22740615  0.63054174     0.46500
H910        H  0.83535819  0.15169261  0.65510654     0.41800
H911        H  0.81408743  0.19661892  0.70186493     0.45300
H912        H  0.77585960  0.11512781  0.64369971     0.36800
C913        C  0.11540136  0.05587647  0.75000580    -0.27500
C914        C  0.10540094  0.04089733  0.76127214     0.02100
C915        C  0.12126219  0.04062804  0.77097784     0.30200
C916        C  0.14691398  0.05544493  0.76937141    -0.19300
C917        C  0.15709873  0.07063019  0.75809793    -0.28700
C918        C  0.14100104  0.07069318  0.74835826     0.44300
C919        C  0.07830720  0.02578031  0.76271870     0.05400
O920        O  0.11186444  0.02601067  0.78206271    -0.57200
H921        H  0.15881906  0.05485371  0.77693490     0.18400
O922        O  0.14993524  0.08543474  0.73730014    -0.63900
H923        H  0.10324473  0.05612388  0.74246775     0.16800
C924        C  0.06435688  0.03714849  0.76464009     0.29100
C925        C  0.03852588  0.02283671  0.76470102    -0.24800
C926        C  0.02610773  0.99703790  0.76266501    -0.24100
C927        C  0.04034427  0.98562819  0.76116214     0.40500
C928        C  0.06623174  0.00003141  0.76127886    -0.26500
O929        O  0.07588284  0.06226043  0.76656789    -0.58400
H930        H  0.02825157  0.03215024  0.76611968     0.16200
O931        O  0.02932406  0.96055248  0.75931968    -0.59900
H932        H  0.07692882  0.99116643  0.75979084     0.14600
H933        H  0.15251916  0.10171427  0.74009388     0.46500
H934        H  0.07609481  0.06925180  0.75770480     0.41800
H935        H  0.02840809  0.95817108  0.74953970     0.45300
H936        H  0.10885947  0.03608828  0.78852954     0.36800
C937        C  0.37575306  0.20544142  0.65399849    -0.27500
C938        C  0.36490868  0.18133602  0.65905397     0.02100
C939        C  0.36602165  0.16302039  0.65157229     0.30200
C940        C  0.37683403  0.16867273  0.63894355    -0.19300
C941        C  0.38681745  0.19258197  0.63362649    -0.28700
C942        C  0.38690798  0.21121963  0.64147166     0.44300
C943        C  0.35170784  0.17527998  0.67191141     0.05400
O944        O  0.35619810  0.13943568  0.65642695    -0.57200
H945        H  0.37670737  0.15407765  0.63317047     0.18400
O946        O  0.39775840  0.23514943  0.63701707    -0.63900
H947        H  0.37513948  0.21975458  0.65967210     0.16800
C948        C  0.36357201  0.18851628  0.68352511     0.29100
C949        C  0.35073584  0.18212928  0.69559419    -0.24800
C950        C  0.32590716  0.16275599  0.69630273    -0.24100
C951        C  0.31389028  0.14991802  0.68454279     0.40500
C952        C  0.32680821  0.15626648  0.67249995    -0.26500
O953        O  0.38801282  0.20701186  0.68327205    -0.58400
H954        H  0.36034590  0.19244895  0.70442513     0.16200
O955        O  0.28976096  0.13078099  0.68467148    -0.59900
H956        H  0.31735263  0.14621312  0.66356394     0.14600
H957        H  0.41531183  0.24317294  0.63982635     0.46500
H958        H  0.38791286  0.22268926  0.68382779     0.41800
H959        H  0.29056460  0.11575137  0.68656500     0.45300
H960        H  0.36978475  0.13971944  0.66155160     0.36800
C961        C  0.53379013  0.88424571  0.03276042    -0.27500
C962        C  0.51369390  0.87778483  0.02431169     0.02100
C963        C  0.49833306  0.85289390  0.02042361     0.30200
C964        C  0.50249900  0.83468398  0.02553279    -0.19300
C965        C  0.52172116  0.84097595  0.03464760    -0.28700
C966        C  0.53794593  0.86610391  0.03787592     0.44300
C967        C  0.50808760  0.89692668  0.02028692     0.05400
O968        O  0.47855479  0.84603418  0.01213055    -0.57200
H969        H  0.48986590  0.81549083  0.02290874     0.18400
O970        O  0.55769809  0.87312954  0.04620608    -0.63900
H971        H  0.54602306  0.90341171  0.03560499     0.16800
C972        C  0.50374543  0.91046346  0.02995260     0.29100
C973        C  0.49784694  0.92810174  0.02605304    -0.24800
C974        C  0.49578689  0.93228114  0.01253555    -0.24100
C975        C  0.50058716  0.91898645  0.00285797     0.40500
C976        C  0.50659782  0.90141715  0.00678368    -0.26500
O977        O  0.50461044  0.90613292  0.04325142    -0.58400
H978        H  0.49412901  0.93797773  0.03365327     0.16200
O979        O  0.49941294  0.92292809  0.98953837    -0.59900
H980        H  0.51013425  0.89127020  0.99926525     0.14600
H981        H  0.57146547  0.87567692  0.04033137     0.46500
H982        H  0.48794625  0.89192902  0.04542398     0.41800
H983        H  0.51627686  0.93649513  0.98712327     0.45300
H984        H  0.46488989  0.84373855  0.01801588     0.36800
C985        C  0.37513340  0.17541079  0.81859043    -0.27500
C986        C  0.36329531  0.16047868  0.82967873     0.02100
C987        C  0.33916554  0.14001608  0.82839467     0.30200
C988        C  0.32684262  0.13514773  0.81621276    -0.19300
C989        C  0.33834914  0.15038977  0.80512388    -0.28700
C990        C  0.36290688  0.17046339  0.80634539     0.44300
C991        C  0.37516607  0.16773228  0.84286179     0.05400
O992        O  0.32693317  0.12563924  0.83922090    -0.57200
H993        H  0.30805038  0.11958688  0.81552095     0.18400
O994        O  0.37478427  0.18605889  0.79586829    -0.63900
H995        H  0.39366830  0.19135294  0.81954424     0.16800
C996        C  0.38256568  0.15312321  0.84965555     0.29100
C997        C  0.39172044  0.15937008  0.86264975    -0.24800
C998        C  0.39357701  0.18014867  0.86908143    -0.24100
C999        C  0.38633980  0.19488316  0.86207220     0.40500
C1000       C  0.37754300  0.18875583  0.84904641    -0.26500
O1001       O  0.38053550  0.13250038  0.84375791    -0.58400
H1002       H  0.39727410  0.14781767  0.86769565     0.16200
O1003       O  0.38673108  0.21473311  0.86794148    -0.59900
H1004       H  0.37161262  0.19995336  0.84391462     0.14600
H1005       H  0.36966902  0.19854910  0.79619559     0.46500
H1006       H  0.39557107  0.13877765  0.83817270     0.41800
H1007       H  0.37054326  0.20773495  0.87252603     0.45300
H1008       H  0.32847204  0.11079207  0.83839796     0.36800
C1009       C  0.41038639  0.07602718  0.97076191    -0.27500
C1010       C  0.43276070  0.08283341  0.97723305     0.02100
C1011       C  0.45135856  0.10810194  0.97788749     0.30200
C1012       C  0.44743870  0.12600368  0.97205609    -0.19300
C1013       C  0.42540970  0.11905744  0.96523059    -0.28700
C1014       C  0.40667827  0.09388137  0.96474873     0.44300
C1015       C  0.43716951  0.06327591  0.98229016     0.05400
O1016       O  0.47415809  0.11522815  0.98316994    -0.57200
H1017       H  0.46220765  0.14524549  0.97227016     0.18400
O1018       O  0.38480812  0.08647302  0.95826073    -0.63900
H1019       H  0.39588498  0.05670826  0.97016656     0.16800
C1020       C  0.44596511  0.06408198  0.99526357     0.29100
C1021       C  0.45184155  0.04644889  0.99930979    -0.24800
C1022       C  0.44854310  0.02736586  0.99069336    -0.24100
C1023       C  0.43850891  0.02589038  0.97791474     0.40500
C1024       C  0.43298127  0.04373790  0.97384460    -0.26500
O1025       O  0.44885895  0.08200013  0.00409088    -0.58400
H1026       H  0.45913343  0.04785784  0.00923234     0.16200
O1027       O  0.43406547  0.00718935  0.96925295    -0.59900
H1028       H  0.42595378  0.04263271  0.96387725     0.14600
H1029       H  0.37426262  0.08854568  0.96483287     0.46500
H1030       H  0.43265941  0.07498742  0.00865210     0.41800
H1031       H  0.44888518  0.01416654  0.96344238     0.45300
H1032       H  0.47582789  0.12533132  0.99111295     0.36800
C1033       C  0.37418967  0.91563534  0.03707839    -0.27500
C1034       C  0.35605938  0.89673857  0.02908080     0.02100
C1035       C  0.36174324  0.89488840  0.01574743     0.30200
C1036       C  0.38516623  0.91183142  0.01058765    -0.19300
C1037       C  0.40347252  0.93081169  0.01854673    -0.28700
C1038       C  0.39770848  0.93251710  0.03196783     0.44300
C1039       C  0.33113883  0.87932997  0.03466248     0.05400
O1040       O  0.34409233  0.87726807  0.00751055    -0.57200
H1041       H  0.38888701  0.91009425  0.00025085     0.18400
O1042       O  0.41491701  0.95037150  0.04026805    -0.63900
H1043       H  0.37011807  0.91723130  0.04737711     0.16800
C1044       C  0.32139508  0.85355835  0.03458103     0.29100
C1045       C  0.29747785  0.83741676  0.03937982    -0.24800
C1046       C  0.28309891  0.84654616  0.04469853    -0.24100
C1047       C  0.29302100  0.87238261  0.04503075     0.40500
C1048       C  0.31686148  0.88853267  0.04005566    -0.26500
O1049       O  0.33526716  0.84396128  0.03002891    -0.58400
H1050       H  0.29038578  0.81767227  0.03923777     0.16200
O1051       O  0.27943291  0.88205406  0.04992927    -0.59900
H1052       H  0.32408866  0.90830791  0.04020710     0.14600
H1053       H  0.41151184  0.96409236  0.03999799     0.46500
H1054       H  0.34465664  0.84372712  0.03788184     0.41800
H1055       H  0.26902065  0.88148789  0.04238642     0.45300
H1056       H  0.34961074  0.86535750  0.00570542     0.36800
C1057       C  0.48715425  0.58637615  0.00967051    -0.27500
C1058       C  0.49608833  0.59218559  0.02273646     0.02100
C1059       C  0.50065828  0.57567624  0.02981060     0.30200
C1060       C  0.49490697  0.55309444  0.02410398    -0.19300
C1061       C  0.48492182  0.54668156  0.01121233    -0.28700
C1062       C  0.48169612  0.56393120  0.00385856     0.44300
C1063       C  0.49878453  0.61454493  0.02922059     0.05400
O1064       O  0.51039419  0.58129497  0.04240248    -0.57200
H1065       H  0.49809198  0.54048928  0.02988842     0.18400
O1066       O  0.47299465  0.55904700  0.99104880    -0.63900
H1067       H  0.48357041  0.59891486  0.00408790     0.16800
C1068       C  0.51230272  0.63803836  0.02321563     0.29100
C1069       C  0.51337525  0.65856461  0.02929867    -0.24800
C1070       C  0.50141437  0.65609750  0.04148670    -0.24100
C1071       C  0.48779900  0.63256706  0.04743800     0.40500
C1072       C  0.48658722  0.61205965  0.04131217    -0.26500
O1073       O  0.52465323  0.64115487  0.01146835    -0.58400
H1074       H  0.52400221  0.67654243  0.02460150     0.16200
O1075       O  0.47503609  0.62924187  0.05905308    -0.59900
H1076       H  0.47560607  0.59400520  0.04589029     0.14600
H1077       H  0.45493319  0.55228718  0.99179852     0.46500
H1078       H  0.54109276  0.64397329  0.01406289     0.41800
H1079       H  0.45872670  0.62657291  0.05629343     0.45300
H1080       H  0.52856055  0.58954690  0.04115833     0.36800
C1081       C  0.46001050  0.33692060  0.97044349    -0.27500
C1082       C  0.44451119  0.34493867  0.96548450     0.02100
C1083       C  0.42768812  0.33150465  0.95525337     0.30200
C1084       C  0.42659221  0.31036344  0.95005996    -0.19300
C1085       C  0.44197256  0.30215794  0.95505269    -0.28700
C1086       C  0.45878209  0.31561708  0.96533671     0.44300
C1087       C  0.44631956  0.36761049  0.97086860     0.05400
O1088       O  0.41220744  0.33888009  0.95030229    -0.57200
H1089       H  0.41342704  0.30016926  0.94222100     0.18400
O1090       O  0.47501859  0.30892601  0.96992332    -0.63900
H1091       H  0.47334931  0.34742656  0.97816315     0.16800
C1092       C  0.44101232  0.36907748  0.98430004     0.29100
C1093       C  0.44319531  0.39088379  0.98924457    -0.24800
C1094       C  0.45070554  0.41144586  0.98092528    -0.24100
C1095       C  0.45589326  0.40986497  0.96743011     0.40500
C1096       C  0.45369241  0.38803956  0.96251271    -0.26500
O1097       O  0.43304726  0.34905036  0.99255399    -0.58400
H1098       H  0.43905316  0.39172463  0.99962426     0.16200
O1099       O  0.46449930  0.42995430  0.95915860    -0.59900
H1100       H  0.45816253  0.38717840  0.95219178     0.14600
H1101       H  0.46858488  0.30137789  0.97877060     0.46500
H1102       H  0.44786486  0.35237572  0.99770778     0.41800
H1103       H  0.44977399  0.42735832  0.95417320     0.45300
H1104       H  0.39753343  0.33117459  0.95622854     0.36800
C1105       C  0.03236029  0.57772515  0.03149355    -0.27500
C1106       C  0.04850115  0.59692104  0.02294227     0.02100
C1107       C  0.04774684  0.59193902  0.00923127     0.30200
C1108       C  0.03186063  0.56795959  0.00436891    -0.19300
C1109       C  0.01609824  0.54849791  0.01295103    -0.28700
C1110       C  0.01614536  0.55381315  0.02662692     0.44300
C1111       C  0.06713979  0.62151935  0.02851873     0.05400
O1112       O  0.06264720  0.61036233  0.00048378    -0.57200
H1113       H  0.03196468  0.56463612  0.99380520     0.18400
O1114       O  0.00113953  0.53564023  0.03546190    -0.63900
H1115       H  0.03280503  0.58106640  0.04208639     0.16800
C1116       C  0.06031846  0.63445057  0.03730041     0.29100
C1117       C  0.07854173  0.65685904  0.04298215    -0.24800
C1118       C  0.10379679  0.66680401  0.04011947    -0.24100
C1119       C  0.11052686  0.65402906  0.03114938     0.40500
C1120       C  0.09230828  0.63166533  0.02546160    -0.26500
O1121       O  0.03584431  0.62573997  0.04004374    -0.58400
H1122       H  0.07278811  0.66650374  0.04963591     0.16200
O1123       O  0.13486985  0.66271833  0.02815370    -0.59900
H1124       H  0.09797513  0.62182198  0.01889518     0.14600
H1125       H  0.98617277  0.53696599  0.03629981     0.46500
H1126       H  0.03340575  0.61997859  0.04940106     0.41800
H1127       H  0.14077559  0.65593057  0.03517132     0.45300
H1128       H  0.05367116  0.61910751  0.99849526     0.36800
C1129       C  0.76548010  0.58592045  0.85143396    -0.27500
C1130       C  0.78077463  0.57997256  0.84418862     0.02100
C1131       C  0.79033344  0.56670285  0.85046486     0.30200
C1132       C  0.78434973  0.55933919  0.86372736    -0.19300
C1133       C  0.76886343  0.56505963  0.87100164    -0.28700
C1134       C  0.75965235  0.57877056  0.86475056     0.44300
C1135       C  0.78742541  0.58856262  0.83026421     0.05400
O1136       O  0.80552009  0.56079596  0.84369817    -0.57200
H1137       H  0.79166724  0.54883286  0.86825727     0.18400
O1138       O  0.74554884  0.58594095  0.87160704    -0.63900
H1139       H  0.75850363  0.59668445  0.84683304     0.16800
C1140       C  0.76908919  0.58198466  0.82047234     0.29100
C1141       C  0.77582206  0.59144837  0.80753712    -0.24800
C1142       C  0.80072589  0.60796288  0.80428590    -0.24100
C1143       C  0.81909657  0.61376031  0.81397715     0.40500
C1144       C  0.81238356  0.60412760  0.82683309    -0.26500
O1145       O  0.74459867  0.56609881  0.82343808    -0.58400
H1146       H  0.76145867  0.58665771  0.80020345     0.16200
O1147       O  0.84369736  0.62902794  0.81103306    -0.59900
H1148       H  0.82670255  0.60928313  0.83424696     0.14600
H1149       H  0.75759899  0.60190708  0.87586346     0.46500
H1150       H  0.73739739  0.57678141  0.82452161     0.41800
H1151       H  0.84876810  0.61821773  0.80663234     0.45300
H1152       H  0.79437469  0.54394815  0.84008675     0.36800
C1153       C  0.84039904  0.49948010  0.97871548    -0.27500
C1154       C  0.86472736  0.51435109  0.97404335     0.02100
C1155       C  0.86993221  0.53270478  0.96450397     0.30200
C1156       C  0.85081631  0.53524014  0.95932044    -0.19300
C1157       C  0.82622546  0.51970510  0.96352215    -0.28700
C1158       C  0.82117466  0.50207490  0.97355582     0.44300
C1159       C  0.88420734  0.50937028  0.97832687     0.05400
O1160       O  0.89359631  0.54784907  0.95991696    -0.57200
H1161       H  0.85527968  0.54926594  0.95182515     0.18400
O1162       O  0.79737347  0.48603295  0.97764764    -0.63900
H1163       H  0.83612063  0.48510729  0.98597065     0.16800
C1164       C  0.89026653  0.50987677  0.99182483     0.29100
C1165       C  0.90817493  0.50417475  0.99554575    -0.24800
C1166       C  0.92052704  0.49825799  0.98591486    -0.24100
C1167       C  0.91468078  0.49817186  0.97237530     0.40500
C1168       C  0.89654608  0.50353038  0.96870642    -0.26500
O1169       O  0.87883492  0.51596058  0.00143393    -0.58400
H1170       H  0.91250317  0.50451917  0.00599750     0.16200
O1171       O  0.92559618  0.49160551  0.96269482    -0.59900
H1172       H  0.89179228  0.50272843  0.95828922     0.14600
H1173       H  0.79598944  0.49224286  0.98647874     0.46500
H1174       H  0.88889561  0.53426785  0.00214837     0.41800
H1175       H  0.93879265  0.50747443  0.95886419     0.45300
H1176       H  0.90159368  0.56141076  0.96654225     0.36800
C1177       C  0.56242759  0.50387557  0.96535707    -0.27500
C1178       C  0.58187596  0.51064852  0.97433724     0.02100
C1179       C  0.57853756  0.51397042  0.98784988     0.30200
C1180       C  0.55556178  0.50963448  0.99228975    -0.19300
C1181       C  0.53582828  0.50212617  0.98335288    -0.28700
C1182       C  0.53952422  0.49953320  0.96975200     0.44300
C1183       C  0.60541182  0.51393145  0.96935272     0.05400
O1184       O  0.59783268  0.52214418  0.99665271    -0.57200
H1185       H  0.55312854  0.51197507  0.00274901     0.18400
O1186       O  0.52063748  0.49183675  0.96072667    -0.63900
H1187       H  0.56482669  0.50128407  0.95492473     0.16800
C1188       C  0.61462967  0.49918040  0.97407604     0.29100
C1189       C  0.63632548  0.50182536  0.96865230    -0.24800
C1190       C  0.64879621  0.51871751  0.95830143    -0.24100
C1191       C  0.63953676  0.53358476  0.95367784     0.40500
C1192       C  0.61796605  0.53099313  0.95915335    -0.26500
O1193       O  0.60216021  0.48160091  0.98367851    -0.58400
H1194       H  0.64294205  0.49005980  0.97226749     0.16200
O1195       O  0.65146094  0.55090544  0.94389910    -0.59900
H1196       H  0.61097417  0.54238137  0.95541913     0.14600
H1197       H  0.51204437  0.47348779  0.96077839     0.46500
H1198       H  0.58963807  0.46666768  0.97879705     0.41800
H1199       H  0.66397922  0.56607394  0.94861303     0.45300
H1200       H  0.59360461  0.50776656  0.00245568     0.36800
C1201       C  0.36106835  0.43339509  0.02551854    -0.27500
C1202       C  0.34332404  0.43083039  0.01621293     0.02100
C1203       C  0.35046649  0.43739946  0.00287843     0.30200
C1204       C  0.37509713  0.44677855  0.99908182    -0.19300
C1205       C  0.39299808  0.44952089  0.00840051    -0.28700
C1206       C  0.38564077  0.44251700  0.02173447     0.44300
C1207       C  0.31763900  0.42197056  0.02064478     0.05400
O1208       O  0.33348164  0.43462612  0.99346170    -0.57200
H1209       H  0.38011751  0.45178111  0.98876506     0.18400
O1210       O  0.40223231  0.44454794  0.03121019    -0.63900
H1211       H  0.35595488  0.42870762  0.03585393     0.16800
C1212       C  0.30403477  0.39969678  0.02778682     0.29100
C1213       C  0.28035767  0.39242374  0.03253944    -0.24800
C1214       C  0.26985675  0.40710914  0.03032100    -0.24100
C1215       C  0.28338395  0.42927012  0.02301531     0.40500
C1216       C  0.30702078  0.43647590  0.01821978    -0.26500
O1217       O  0.31349156  0.38460586  0.02984257    -0.58400
H1218       H  0.27018209  0.37520646  0.03800201     0.16200
O1219       O  0.27417442  0.44454402  0.02092782    -0.59900
H1220       H  0.31741178  0.45386100  0.01292059     0.14600
H1221       H  0.40908121  0.46134908  0.03505331     0.46500
H1222       H  0.31809406  0.38652968  0.03938593     0.41800
H1223       H  0.27973243  0.45587136  0.02869735     0.45300
H1224       H  0.32615829  0.41738833  0.99018495     0.36800
C1225       C  0.02663079  0.42799860  0.02228024    -0.27500
C1226       C  0.05147395  0.44096929  0.01821200     0.02100
C1227       C  0.05943207  0.46072999  0.00916131     0.30200
C1228       C  0.04276619  0.46755083  0.00457319    -0.19300
C1229       C  0.01817380  0.45521640  0.00909922    -0.28700
C1230       C  0.01008992  0.43505589  0.01789052     0.44300
C1231       C  0.06883283  0.43378454  0.02361149     0.05400
O1232       O  0.08359093  0.47389199  0.00499822    -0.57200
H1233       H  0.04931620  0.48304668  0.99779287     0.18400
O1234       O  0.98584524  0.42158680  0.02190703    -0.63900
H1235       H  0.02001801  0.41232501  0.02894170     0.16800
C1236       C  0.07097787  0.43165449  0.03742094     0.29100
C1237       C  0.08659496  0.42382325  0.04234154    -0.24800
C1238       C  0.10055067  0.41811876  0.03370820    -0.24100
C1239       C  0.09864271  0.42064903  0.01985909     0.40500
C1240       C  0.08294763  0.42845362  0.01495268    -0.26500
O1241       O  0.05792328  0.43726268  0.04622882    -0.58400
H1242       H  0.08790404  0.42248014  0.05300493     0.16200
O1243       O  0.11148249  0.41499884  0.01094968    -0.59900
H1244       H  0.08134910  0.42976128  0.00429803     0.14600
H1245       H  0.98562530  0.42771786  0.03096684     0.46500
H1246       H  0.06789921  0.45550673  0.04732706     0.41800
H1247       H  0.10027302  0.39724102  0.00878081     0.45300
H1248       H  0.09220480  0.48741302  0.01159738     0.36800
C1249       C  0.78655639  0.18081788  0.84468409    -0.27500
C1250       C  0.76613271  0.16722849  0.83635391     0.02100
C1251       C  0.74258098  0.16181713  0.84049867     0.30200
C1252       C  0.73958767  0.16951070  0.85307399    -0.19300
C1253       C  0.75995917  0.18272814  0.86163046    -0.28700
C1254       C  0.78364415  0.18844784  0.85726709     0.44300
C1255       C  0.76962126  0.15766561  0.82368995     0.05400
O1256       O  0.72231850  0.14840357  0.83249832    -0.57200
H1257       H  0.72124572  0.16493918  0.85618053     0.18400
O1258       O  0.80392369  0.20044937  0.86539707    -0.63900
H1259       H  0.80473724  0.18486907  0.84155941     0.16800
C1260       C  0.77714200  0.17239787  0.81219702     0.29100
C1261       C  0.78247204  0.16376740  0.80058247    -0.24800
C1262       C  0.78089380  0.14065938  0.80036033    -0.24100
C1263       C  0.77270396  0.12567634  0.81183941     0.40500
C1264       C  0.76715699  0.13425655  0.82339649    -0.26500
O1265       O  0.77962829  0.19535804  0.81229341    -0.58400
H1266       H  0.78874521  0.17560575  0.79189500     0.16200
O1267       O  0.77014814  0.10269113  0.81191781    -0.59900
H1268       H  0.76137318  0.12282564  0.83224891     0.14600
H1269       H  0.80408177  0.18716974  0.87061470     0.46500
H1270       H  0.79708774  0.20699337  0.81484873     0.41800
H1271       H  0.75350816  0.09138037  0.80812632     0.45300
H1272       H  0.72202748  0.16073907  0.82649817     0.36800
C1273       C  0.87508209  0.32528023  0.95680538    -0.27500
C1274       C  0.86838045  0.33678544  0.96652111     0.02100
C1275       C  0.84328068  0.32582065  0.97015088     0.30200
C1276       C  0.82530099  0.30409466  0.96379851    -0.19300
C1277       C  0.83194093  0.29305763  0.95376378    -0.28700
C1278       C  0.85715175  0.30354133  0.95051206     0.44300
C1279       C  0.88752885  0.36106257  0.97206975     0.05400
O1280       O  0.83598026  0.33715952  0.97919339    -0.57200
H1281       H  0.80601243  0.29640167  0.96639431     0.18400
O1282       O  0.86452659  0.29271371  0.94120453    -0.63900
H1283       H  0.89433330  0.33334448  0.95400682     0.16800
C1284       C  0.89150383  0.36493344  0.98585989     0.29100
C1285       C  0.90881600  0.38845825  0.99075310    -0.24800
C1286       C  0.92280308  0.40842064  0.98206742    -0.24100
C1287       C  0.91929218  0.40426380  0.96822585     0.40500
C1288       C  0.90185842  0.38076896  0.96336588    -0.26500
O1289       O  0.87866151  0.34584593  0.99464665    -0.58400
H1290       H  0.91135097  0.39103325  0.00141033     0.16200
O1291       O  0.93236418  0.42308681  0.95932579    -0.59900
H1292       H  0.89908829  0.37806906  0.95272174     0.14600
H1293       H  0.86608180  0.27994263  0.94613253     0.46500
H1294       H  0.88810633  0.33722271  0.99512626     0.41800
H1295       H  0.92200404  0.43052180  0.95778232     0.45300
H1296       H  0.83048947  0.32630278  0.98714468     0.36800
C1297       C  0.57901445  0.06873614  0.98558807    -0.27500
C1298       C  0.58467547  0.06399679  0.97285366     0.02100
C1299       C  0.56846513  0.04119728  0.96668014     0.30200
C1300       C  0.54643182  0.02393768  0.97302642    -0.19300
C1301       C  0.54013752  0.02900879  0.98557036    -0.28700
C1302       C  0.55695221  0.05157429  0.99193135     0.44300
C1303       C  0.60717512  0.08330415  0.96596468     0.05400
O1304       O  0.57441769  0.03538433  0.95461913    -0.57200
H1305       H  0.53417576  0.00657610  0.96803898     0.18400
O1306       O  0.55189407  0.05734491  0.00423053    -0.63900
H1307       H  0.59143561  0.08616680  0.99048095     0.16800
C1308       C  0.60543111  0.09291236  0.95364264     0.29100
C1309       C  0.62684889  0.11097197  0.94720416    -0.24800
C1310       C  0.65019724  0.12028961  0.95306455    -0.24100
C1311       C  0.65191946  0.11109045  0.96554250     0.40500
C1312       C  0.63048767  0.09274604  0.97189990    -0.26500
O1313       O  0.58282218  0.08510086  0.94792857    -0.58400
H1314       H  0.62514064  0.11809365  0.93771560     0.16200
O1315       O  0.67445113  0.11946321  0.97148284    -0.59900
H1316       H  0.63208062  0.08564564  0.98142157     0.14600
H1317       H  0.54397435  0.06719558  0.00245531     0.46500
H1318       H  0.57736424  0.09612618  0.95163584     0.41800
H1319       H  0.68067860  0.10911734  0.96771296     0.45300
H1320       H  0.56245791  0.03526763  0.94817312     0.36800
C1321       C  0.01783003  0.94358512  0.25538830    -0.27500
C1322       C  0.00227900  0.91782194  0.25448558     0.02100
C1323       C  0.97650633  0.90751061  0.25411429     0.30200
C1324       C  0.96666283  0.92297187  0.25445133    -0.19300
C1325       C  0.98218514  0.94892728  0.25508271    -0.28700
C1326       C  0.00808302  0.95913004  0.25564015     0.44300
C1327       C  0.01329975  0.90202082  0.25384957     0.05400
O1328       O  0.96078721  0.88235955  0.25324436    -0.57200
H1329       H  0.94674163  0.91446644  0.25406950     0.18400
O1330       O  0.02414714  0.98419610  0.25658904    -0.63900
H1331       H  0.03771634  0.95172211  0.25589886     0.16800
C1332       C  0.03099056  0.90608811  0.24406273     0.29100
C1333       C  0.04219290  0.89186213  0.24398813    -0.24800
C1334       C  0.03596899  0.87336122  0.25357285    -0.24100
C1335       C  0.01772913  0.86882897  0.26314409     0.40500
C1336       C  0.00662260  0.88318321  0.26325592    -0.26500
O1337       O  0.03755972  0.92403834  0.23456191    -0.58400
H1338       H  0.05610581  0.89563613  0.23652517     0.16200
O1339       O  0.01042559  0.85031942  0.27236553    -0.59900
H1340       H  0.99298005  0.87981167  0.27082013     0.14600
H1341       H  0.02930768  0.98989966  0.24732058     0.46500
H1342       H  0.02483432  0.91613454  0.22750550     0.41800
H1343       H  0.99792170  0.83499396  0.26775822     0.45300
H1344       H  0.95746276  0.87885742  0.24361028     0.36800
C1345       C  0.15898680  0.80819575  0.35416027    -0.27500
C1346       C  0.14430301  0.78541496  0.34775815     0.02100
C1347       C  0.13566387  0.76331964  0.35491064     0.30200
C1348       C  0.14192853  0.76423125  0.36833836    -0.19300
C1349       C  0.15657645  0.78707352  0.37485079    -0.28700
C1350       C  0.16509297  0.80918325  0.36761401     0.44300
C1351       C  0.13711378  0.78518713  0.33378985     0.05400
O1352       O  0.12149991  0.74080937  0.34878284    -0.57200
H1353       H  0.13531613  0.74698609  0.37364564     0.18400
O1354       O  0.17801368  0.83180965  0.37376700    -0.63900
H1355       H  0.16523185  0.82531105  0.34876985     0.16800
C1356       C  0.11287112  0.77894321  0.33061372     0.29100
C1357       C  0.10691369  0.78130504  0.31754010    -0.24800
C1358       C  0.12497250  0.79019564  0.30747229    -0.24100
C1359       C  0.14914661  0.79583734  0.31062550     0.40500
C1360       C  0.15504455  0.79330955  0.32373459    -0.26500
O1361       O  0.09511942  0.77142114  0.34031937    -0.58400
H1362       H  0.08819885  0.77675121  0.31534917     0.16200
O1363       O  0.16744375  0.80499208  0.30118090    -0.59900
H1364       H  0.17384335  0.79839617  0.32614947     0.14600
H1365       H  0.19530759  0.83920625  0.37059309     0.46500
H1366       H  0.09678311  0.78689922  0.34389450     0.41800
H1367       H  0.17501214  0.82323641  0.30153106     0.45300
H1368       H  0.10415791  0.73538342  0.35116586     0.36800
C1369       C  0.14265762  0.77780019  0.18071124    -0.27500
C1370       C  0.13953258  0.79003941  0.16994207     0.02100
C1371       C  0.13126486  0.80659841  0.17223669     0.30200
C1372       C  0.12622250  0.81078513  0.18516762    -0.19300
C1373       C  0.12902304  0.79843601  0.19607459    -0.28700
C1374       C  0.13719548  0.78164335  0.19370016     0.44300
C1375       C  0.14468676  0.78549106  0.15625528     0.05400
O1376       O  0.12805967  0.81881545  0.16186331    -0.57200
H1377       H  0.12027225  0.82397564  0.18658687     0.18400
O1378       O  0.13935915  0.76841485  0.20387087    -0.63900
H1379       H  0.14884218  0.76483691  0.17899896     0.16800
C1380       C  0.16901557  0.79377702  0.15207022     0.29100
C1381       C  0.17374988  0.79151767  0.13869915    -0.24800
C1382       C  0.15431949  0.78044633  0.12945098    -0.24100
C1383       C  0.12986022  0.77156942  0.13376375     0.40500
C1384       C  0.12523021  0.77423156  0.14707441    -0.26500
O1385       O  0.18835977  0.80508013  0.16085858    -0.58400
H1386       H  0.19263374  0.79830164  0.13557169     0.16200
O1387       O  0.11043500  0.76097261  0.12499485    -0.59900
H1388       H  0.10642941  0.76786373  0.15021610     0.14600
H1389       H  0.12289796  0.75304407  0.20452407     0.46500
H1390       H  0.19149772  0.79188256  0.16374348     0.41800
H1391       H  0.10893615  0.77490240  0.12154726     0.45300
H1392       H  0.14438462  0.83414797  0.16064063     0.36800
C1393       C  0.99626454  0.07240048  0.25922915    -0.27500
C1394       C  0.02153006  0.08361444  0.25628621     0.02100
C1395       C  0.03154687  0.06867852  0.25338445     0.30200
C1396       C  0.01624618  0.04288637  0.25325652    -0.19300
C1397       C  0.99075329  0.03151361  0.25592155    -0.28700
C1398       C  0.98090204  0.04663476  0.25909948     0.44300
C1399       C  0.03705288  0.11091434  0.25571207     0.05400
O1400       O  0.05617949  0.07913554  0.25037912    -0.57200
H1401       H  0.02435733  0.03182364  0.25079214     0.18400
O1402       O  0.95631823  0.03657575  0.26208870    -0.63900
H1403       H  0.98839639  0.08371546  0.26163334     0.16800
C1404       C  0.03106152  0.12441209  0.24692384     0.29100
C1405       C  0.04634779  0.15010392  0.24608114    -0.24800
C1406       C  0.06746531  0.16282872  0.25412116    -0.24100
C1407       C  0.07334776  0.14936865  0.26303838     0.40500
C1408       C  0.05818415  0.12355082  0.26376217    -0.26500
O1409       O  0.01080302  0.11251749  0.23874814    -0.58400
H1410       H  0.04144053  0.16012638  0.23920823     0.16200
O1411       O  0.09407945  0.16115394  0.27087299    -0.59900
H1412       H  0.06293537  0.11334492  0.27059665     0.14600
H1413       H  0.95501362  0.03307583  0.27176350     0.46500
H1414       H  0.99806139  0.11520370  0.24287403     0.41800
H1415       H  0.10750183  0.16164498  0.26546964     0.45300
H1416       H  0.05730699  0.08196200  0.24063856     0.36800
C1417       C  0.16459935  0.38136858  0.31438534    -0.27500
C1418       C  0.15030669  0.36843053  0.32551515     0.02100
C1419       C  0.13210685  0.34317259  0.32415218     0.30200
C1420       C  0.12864926  0.33125655  0.31192832    -0.19300
C1421       C  0.14328149  0.34397590  0.30084112    -0.28700
C1422       C  0.16125076  0.36935349  0.30212943     0.44300
C1423       C  0.15515249  0.38078177  0.33869693     0.05400
O1424       O  0.11799415  0.32971720  0.33481138    -0.57200
H1425       H  0.11454171  0.31183109  0.31119673     0.18400
O1426       O  0.17666885  0.38221916  0.29175238    -0.63900
H1427       H  0.17863956  0.40080340  0.31522769     0.16800
C1428       C  0.17897755  0.39267696  0.34437292     0.29100
C1429       C  0.18245181  0.40114621  0.35752743    -0.24800
C1430       C  0.16245358  0.39802489  0.36526883    -0.24100
C1431       C  0.13877466  0.38703291  0.35936017     0.40500
C1432       C  0.13539363  0.37882604  0.34616599    -0.26500
O1433       O  0.19867047  0.39455397  0.33747705    -0.58400
H1434       H  0.20086208  0.40975214  0.36174392     0.16200
O1435       O  0.11850325  0.38303482  0.36650297    -0.59900
H1436       H  0.11699325  0.37000976  0.34190021     0.14600
H1437       H  0.17055311  0.39284886  0.28829093     0.46500
H1438       H  0.20858475  0.41212230  0.33465916     0.41800
H1439       H  0.11181953  0.36646246  0.37059983     0.45300
H1440       H  0.12819121  0.32434352  0.33960144     0.36800
C1441       C  0.16067688  0.33053860  0.13951414    -0.27500
C1442       C  0.15114091  0.34140536  0.14793615     0.02100
C1443       C  0.14440868  0.35771141  0.14258416     0.30200
C1444       C  0.14716683  0.36294748  0.12895022    -0.19300
C1445       C  0.15674450  0.35215924  0.12044137    -0.28700
C1446       C  0.16357447  0.33583883  0.12586736     0.44300
C1447       C  0.14700279  0.33464315  0.16217996     0.05400
O1448       O  0.13489032  0.36844024  0.15060295    -0.57200
H1449       H  0.14190842  0.37561735  0.12504615     0.18400
O1450       O  0.17251435  0.32447485  0.11791868    -0.63900
H1451       H  0.16566202  0.31772335  0.14353039     0.16800
C1452       C  0.12733913  0.31138816  0.16609651     0.29100
C1453       C  0.12318925  0.30526093  0.17958416    -0.24800
C1454       C  0.13875231  0.32187889  0.18945484    -0.24100
C1455       C  0.15853059  0.34528762  0.18546051     0.40500
C1456       C  0.16236577  0.35156617  0.17191089    -0.26500
O1457       O  0.11162903  0.29476604  0.15680160    -0.58400
H1458       H  0.10758760  0.28734422  0.18227266     0.16200
O1459       O  0.17453656  0.36199802  0.19460935    -0.59900
H1460       H  0.17758932  0.36956665  0.16896603     0.14600
H1461       H  0.15763572  0.30940120  0.11447431     0.46500
H1462       H  0.11832564  0.28386369  0.15489250     0.41800
H1463       H  0.18813775  0.35849497  0.19539249     0.45300
H1464       H  0.11679702  0.35648390  0.15081314     0.36800
C1465       C  0.81601881  0.92552717  0.26196028    -0.27500
C1466       C  0.82900873  0.92308802  0.25135330     0.02100
C1467       C  0.81600940  0.90915988  0.24012851     0.30200
C1468       C  0.79023357  0.89744326  0.23972252    -0.19300
C1469       C  0.77700090  0.89952096  0.25040240    -0.28700
C1470       C  0.79025486  0.91406905  0.26153009     0.44300
C1471       C  0.85610089  0.93468717  0.25217810     0.05400
O1472       O  0.82836681  0.90681862  0.22952370    -0.57200
H1473       H  0.78063268  0.88642121  0.23107346     0.18400
O1474       O  0.77840671  0.91750539  0.27200657    -0.63900
H1475       H  0.82589715  0.93623929  0.27065540     0.16800
C1476       C  0.87157088  0.96046842  0.25338605     0.29100
C1477       C  0.89724585  0.97102420  0.25386972    -0.24800
C1478       C  0.90792702  0.95612359  0.25339013    -0.24100
C1479       C  0.89212878  0.93011851  0.25239454     0.40500
C1480       C  0.86651524  0.91971264  0.25171554    -0.26500
O1481       O  0.86178328  0.97553742  0.25358296    -0.58400
H1482       H  0.90874702  0.99098173  0.25462359     0.16200
O1483       O  0.90135712  0.91459775  0.25183217    -0.59900
H1484       H  0.85466798  0.89978076  0.25089066     0.14600
H1485       H  0.77731961  0.93218564  0.26958913     0.46500
H1486       H  0.86173447  0.97977370  0.26308030     0.41800
H1487       H  0.90107608  0.90928037  0.26114446     0.45300
H1488       H  0.83268150  0.92124060  0.22374035     0.36800
C1489       C  0.57116912  0.77269716  0.34875485    -0.27500
C1490       C  0.57078441  0.79221018  0.34232591     0.02100
C1491       C  0.56110679  0.80504626  0.34891448     0.30200
C1492       C  0.55198002  0.79831505  0.36185116    -0.19300
C1493       C  0.55270333  0.77903768  0.36849649    -0.28700
C1494       C  0.56248034  0.76621157  0.36179006     0.44300
C1495       C  0.58115709  0.79941259  0.32884734     0.05400
O1496       O  0.55985850  0.82370408  0.34261946    -0.57200
H1497       H  0.54423297  0.80822865  0.36663667     0.18400
O1498       O  0.56430754  0.74778667  0.36792082    -0.63900
H1499       H  0.57882394  0.76286850  0.34374790     0.16800
C1500       C  0.60270012  0.82246089  0.32658833     0.29100
C1501       C  0.61280178  0.82865837  0.31383926    -0.24800
C1502       C  0.60182974  0.81199284  0.30321021    -0.24100
C1503       C  0.58015006  0.78890279  0.30549827     0.40500
C1504       C  0.56998021  0.78278063  0.31827424    -0.26500
O1505       O  0.61428001  0.83883035  0.33683792    -0.58400
H1506       H  0.62943379  0.84650936  0.31230867     0.16200
O1507       O  0.56919748  0.77185241  0.29548200    -0.59900
H1508       H  0.55347989  0.76489129  0.31998419     0.14600
H1509       H  0.58044352  0.75637710  0.37262013     0.46500
H1510       H  0.62643122  0.83476293  0.34041856     0.41800
H1511       H  0.57783471  0.76239525  0.29542917     0.45300
H1512       H  0.57341596  0.83929225  0.34651227     0.36800
C1513       C  0.60252440  0.80038744  0.16904883    -0.27500
C1514       C  0.57782993  0.79433754  0.16838344     0.02100
C1515       C  0.56535742  0.79349759  0.18014754     0.30200
C1516       C  0.57787926  0.79937783  0.19232861    -0.19300
C1517       C  0.60288377  0.80601851  0.19301278    -0.28700
C1518       C  0.61497556  0.80592081  0.18119220     0.44300
C1519       C  0.56544366  0.78870846  0.15529981     0.05400
O1520       O  0.54105011  0.78725852  0.17982625    -0.57200
H1521       H  0.56803461  0.79917857  0.20119554     0.18400
O1522       O  0.63880290  0.81073029  0.18132046    -0.63900
H1523       H  0.61212677  0.80044522  0.16009003     0.16800
C1524       C  0.57550069  0.80604618  0.14489535     0.29100
C1525       C  0.56504265  0.79965203  0.13221395    -0.24800
C1526       C  0.54470229  0.77591059  0.12963418    -0.24100
C1527       C  0.53400175  0.75891047  0.14018737     0.40500
C1528       C  0.54442576  0.76536069  0.15291840    -0.26500
O1529       O  0.59541112  0.82937961  0.14709790    -0.58400
H1530       H  0.57346518  0.81310958  0.12428964     0.16200
O1531       O  0.51343689  0.73597273  0.13818205    -0.59900
H1532       H  0.53647578  0.75188950  0.16087230     0.14600
H1533       H  0.63728684  0.79438423  0.18259955     0.46500
H1534       H  0.60975104  0.82944995  0.14296903     0.41800
H1535       H  0.49917899  0.73838208  0.13935798     0.45300
H1536       H  0.54151787  0.80293570  0.17790690     0.36800
loop_ 
_geom_bond_atom_site_label_1 
_geom_bond_atom_site_label_2 
_geom_bond_distance 
_geom_bond_site_symmetry_2 
_ccdc_geom_bond_type 
N1            N2   1.320       .  A
N1            C5   1.345       .  A
N1           Cu9   2.069       .  S
N2            C3   1.339       .  A
N2           Cu8   2.050       .  S
C3            C4   1.381       .  A
C3            H6   1.082       .  S
C4            C5   1.387       .  A
C4         C1502   1.475       .  S
C5            H7   1.081       .  S
Cu8          N11   2.049       .  S
Cu9          N19   2.070       .  S
Cu10         N12   2.069       .  S
Cu10         N18   2.070       .  S
N11          N12   1.318       .  A
N11          C15   1.340       .  A
N12          C13   1.344       .  A
C13          C14   1.389       .  A
C13          H16   1.082       .  S
C14          C15   1.385       .  A
C14        C1469   1.482       .  S
C15          H17   1.080       .  S
N18          N19   1.321       .  A
N18          C22   1.341       .  A
N19          C20   1.344       .  A
C20          C21   1.387       .  A
C20          H23   1.081       .  S
C21          C22   1.387       .  A
C21        C1517   1.486       .  S
C22          H24   1.080       .  S
N25          N26   1.324       .  A
N25          C29   1.349       .  A
N25         Cu33   2.097       .  S
N26          C27   1.342       .  A
N26         Cu32   2.068       .  S
C27          C28   1.383       .  A
C27          H30   1.082       .  S
C28          C29   1.390       .  A
C28        C1421   1.485       .  S
C29          H31   1.081       .  S
Cu32         N35   2.066       .  S
Cu33         N43   2.096       .  S
Cu34         N36   2.056       .  S
Cu34         N42   2.056       .  S
N35          N36   1.319       .  A
N35          C39   1.346       .  A
N36          C37   1.341       .  A
C37          C38   1.383       .  A
C37          H40   1.082       .  S
C38          C39   1.386       .  A
C38        C1406   1.476       .  S
C39          H41   1.082       .  S
N42          N43   1.321       .  A
N42          C46   1.339       .  A
N43          C44   1.351       .  A
C44          C45   1.395       .  A
C44          H47   1.081       .  S
C45          C46   1.383       .  A
C45        C1454   1.491       .  S
C46          H48   1.081       .  S
N49          N50   1.321       .  A
N49          C53   1.348       .  A
N49         Cu57   2.087       .  S
N50          C51   1.339       .  A
N50         Cu56   2.058       .  S
C51          C52   1.384       .  A
C51          H54   1.081       .  S
C52          C53   1.392       .  A
C52        C1373   1.488       .  S
C53          H55   1.081       .  S
Cu56         N59   2.057       .  S
Cu57         N67   2.087       .  S
Cu58         N60   2.061       .  S
Cu58         N66   2.062       .  S
N59          N60   1.318       .  A
N59          C63   1.342       .  A
N60          C61   1.344       .  A
C61          C62   1.386       .  A
C61          H64   1.081       .  S
C62          C63   1.384       .  A
C62        C1334   1.478       .  S
C63          H65   1.082       .  S
N66          N67   1.323       .  A
N66          C70   1.339       .  A
N67          C68   1.349       .  A
C68          C69   1.389       .  A
C68          H71   1.081       .  S
C69          C70   1.380       .  A
C69        C1358   1.480       .  S
C70          H72   1.082       .  S
C73          N74   1.357       .  A
C73          N78   1.358       .  A
C73        C1325   1.487       .  S
N74          C75   1.356       .  A
C75          N76   1.357       .  A
C75        C1478   1.486       .  S
N76          C77   1.357   1_565  A
C77          N78   1.358   1_545  A
C77        C1397   1.484       .  S
N79          N80   1.322       .  A
N79          C83   1.344       .  A
N79         Cu87   2.070       .  S
N80          C81   1.344       .  A
N80         Cu86   2.070       .  S
C81          C82   1.384       .  A
C81          H84   1.082       .  S
C82          C83   1.384       .  A
C82        C1310   1.477       .  S
C83          H85   1.082       .  S
Cu86         N89   2.070       .  S
Cu87         N97   2.070       .  S
Cu88         N90   2.078       .  S
Cu88         N96   2.078       .  S
N89          N90   1.322       .  A
N89          C93   1.345       .  A
N90          C91   1.345       .  A
C91          C92   1.386       .  A
C91          H94   1.082       .  S
C92          C93   1.384       .  A
C92        C1277   1.481       .  S
C93          H95   1.082       .  S
N96          N97   1.321       .  A
N96         C100   1.345       .  A
N97          C98   1.344       .  A
C98          C99   1.385       .  A
C98         H101   1.082       .  S
C99         C100   1.388       .  A
C99        C1253   1.483       .  S
C100        H102   1.081       .  S
N103        N104   1.321       .  A
N103        C107   1.345       .  A
N103       Cu111   2.079       .  S
N104        C105   1.345       .  A
N104       Cu110   2.073       .  S
C105        C106   1.386       .  A
C105        H108   1.081       .  S
C106        C107   1.387       .  A
C106       C1445   1.485       .  S
C107        H109   1.082       .  S
Cu110       N113   2.072       .  S
Cu111       N121   2.079       .  S
Cu112       N114   2.074       .  S
Cu112       N120   2.074       .  S
N113        N114   1.322       .  A
N113        C117   1.343       .  A
N114        C115   1.346       .  A
C115        C116   1.386       .  A
C115        H118   1.081       .  S
C116        C117   1.384       .  A
C116       C1214   1.481       .  S
C117        H119   1.082       .  S
N120        N121   1.321       .  A
N120        C124   1.345       .  A
N121        C122   1.344       .  A
C122        C123   1.389       .  A
C122        H125   1.081       .  S
C123        C124   1.388       .  A
C123       C1238   1.490       .  S
C124        H126   1.080       .  S
N127        N128   1.318       .  A
N127        C131   1.343       .  A
N127       Cu135   2.063       .  S
N128        C129   1.344       .  A
N128       Cu134   2.063       .  S
C129        C130   1.388       .  A
C129        H132   1.081       .  S
C130        C131   1.387       .  A
C130       C1133   1.484       .  S
C131        H133   1.082       .  S
Cu134       N137   2.063       .  S
Cu135       N145   2.063       .  S
Cu136       N138   2.082       .  S
Cu136       N144   2.081       .  S
N137        N138   1.323       .  A
N137        C141   1.340       .  A
N138        C139   1.347       .  A
C139        C140   1.387       .  A
C139        H142   1.082       .  S
C140        C141   1.382       .  A
C140       C1190   1.480       .  S
C141        H143   1.081       .  S
N144        N145   1.322       .  A
N144        C148   1.348       .  A
N145        C146   1.340       .  A
C146        C147   1.382       .  A
C146        H149   1.082       .  S
C147        C148   1.389       .  A
C147       C1157   1.482       .  S
C148        H150   1.081       .  S
O151       Cu159   2.009   1_556  S
O151        C161   1.278       .  A
O152       Cu159   2.013       .  S
O152        C162   1.278       .  A
O153       Cu159   2.001       .  S
O153        C163   1.277   1_554  A
O154       Cu159   2.000       .  S
O154        C164   1.277   1_655  A
O155       Cu160   2.015   1_455  S
O155        C164   1.279   1_556  A
O156       Cu160   2.007       .  S
O156        C163   1.278       .  A
O157       Cu160   2.019   1_455  S
O157        C162   1.280   1_456  A
O158       Cu160   2.016       .  S
O158        C161   1.279       .  A
Cu159      Cu160   2.369   1_554  S
C161       C1286   1.486       .  S
C162       C1109   1.492   1_655  S
C163       C1166   1.478       .  S
C164       C1229   1.479       .  S
O165       Cu173   1.999       .  S
O165        C175   1.277       .  A
O166       Cu173   2.003       .  S
O166        C176   1.277   1_556  A
O167       Cu173   1.995       .  S
O167        C177   1.277       .  A
O168       Cu173   2.007       .  S
O168        C178   1.278   1_556  A
O169       Cu174   2.006       .  S
O169        C178   1.278       .  A
O170       Cu174   2.002       .  S
O170        C177   1.277   1_554  A
O171       Cu174   1.998       .  S
O171        C176   1.277       .  A
O172       Cu174   2.000   1_556  S
O172        C175   1.277       .  A
Cu173      Cu174   2.371   1_556  S
C175       C1094   1.474       .  S
C176       C1061   1.482       .  S
C177       C1181   1.474       .  S
C178       C1205   1.485       .  S
N179        N180   1.324       .  A
N179        C183   1.346       .  A
N179       Cu187   2.077       .  S
N180        C181   1.346       .  A
N180       Cu186   2.093       .  S
C181        C182   1.387       .  A
C181        H184   1.082       .  S
C182        C183   1.384       .  A
C182       C1046   1.484       .  S
C183        H185   1.082       .  S
Cu186       N189   2.092       .  S
Cu187       N197   2.077       .  S
Cu188       N190   2.058       .  S
Cu188       N196   2.058       .  S
N189        N190   1.321       .  A
N189        C193   1.349       .  A
N190        C191   1.342       .  A
C191        C192   1.384       .  A
C191        H194   1.082       .  S
C192        C193   1.392       .  A
C192       C1118   1.488       .  S
C193        H195   1.081       .  S
N196        N197   1.321       .  A
N196        C200   1.342       .  A
N197        C198   1.346       .  A
C198        C199   1.386       .  A
C198        H201   1.082       .  S
C199        C200   1.382       .  A
C199       C1382   1.476       .  S
C200        H202   1.082       .  S
N203        N204   1.319       .  A
N203        C207   1.345       .  A
N203       Cu211   2.070       .  S
N204        C205   1.342       .  A
N204       Cu210   2.063       .  S
C205        C206   1.388       .  A
C205        H208   1.080       .  S
C206        C207   1.389       .  A
C206        C998   1.488       .  S
C207        H209   1.082       .  S
Cu210       N213   2.064       .  S
Cu211       N221   2.071       .  S
Cu212       N214   2.076       .  S
Cu212       N220   2.077       .  S
N213        N214   1.322       .  A
N213        C217   1.342       .  A
N214        C215   1.345       .  A
C215        C216   1.386       .  A
C215        H218   1.081       .  S
C216        C217   1.382       .  A
C216       C1085   1.477       .  S
C217        H219   1.082       .  S
N220        N221   1.323       .  A
N220        C224   1.346       .  A
N221        C222   1.342       .  A
C222        C223   1.381       .  A
C222        H225   1.082       .  S
C223        C224   1.385       .  A
C223       C1013   1.475       .  S
C224        H226   1.082       .  S
N227        N228   1.320       .  A
N227        C231   1.340       .  A
N227       Cu235   2.052       .  S
N228        C229   1.347       .  A
N228       Cu234   2.076       .  S
C229        C230   1.388       .  A
C229        H232   1.082       .  S
C230        C231   1.381       .  A
C230       C1526   1.478       .  S
C231        H233   1.082       .  S
Cu234       N237   2.078       .  S
Cu235       N245   2.052       .  S
Cu236       N238   2.070       .  S
Cu236       N244   2.069       .  S
N237        N238   1.324       .  A
N237        C241   1.344       .  A
N238        C239   1.344       .  A
C239        C240   1.382       .  A
C239        H242   1.082       .  S
C240        C241   1.384       .  A
C240       C1070   1.475       .  S
C241        H243   1.082       .  S
N244        N245   1.319       .  A
N244        C248   1.346       .  A
N245        C246   1.339       .  A
C246        C247   1.382       .  A
C246        H249   1.082       .  S
C247        C248   1.387       .  A
C247        C965   1.476       .  S
C248        H250   1.082       .  S
O251       Cu259   2.014   1_545  S
O251        C261   1.279   1_554  A
O252       Cu259   2.012       .  S
O252        C262   1.279       .  A
O253       Cu259   2.010   1_545  S
O253        C263   1.278   1_554  A
O254       Cu259   2.011       .  S
O254        C264   1.278       .  A
O255       Cu260   2.017   1_554  S
O255        C264   1.280       .  A
O256       Cu260   2.013       .  S
O256        C263   1.279   1_565  A
O257       Cu260   1.992       .  S
O257        C262   1.275   1_556  A
O258       Cu260   1.996       .  S
O258        C261   1.276   1_565  A
Cu259      Cu260   2.367   1_554  S
C261       C1022   1.486       .  S
C262        C974   1.478       .  S
C263       C1301   1.487       .  S
C264       C1037   1.492       .  S
N265        N266   1.321       .  A
N265        C269   1.345       .  A
N265       Cu273   2.069       .  S
N266        C267   1.342       .  A
N266       Cu272   2.064       .  S
C267        C268   1.384       .  A
C267        H270   1.082       .  S
C268        C269   1.387       .  A
C268        C989   1.481       .  S
C269        H271   1.081       .  S
Cu272       N275   2.064       .  S
Cu273       N283   2.069       .  S
Cu274       N276   2.066       .  S
Cu274       N282   2.066       .  S
N275        N276   1.320       .  A
N275        C279   1.343       .  A
N276        C277   1.343       .  A
C277        C278   1.387       .  A
C277        H280   1.081       .  S
C278        C279   1.385       .  A
C278        C917   1.482       .  S
C279        H281   1.082       .  S
N282        N283   1.321       .  A
N282        C286   1.344       .  A
N283        C284   1.342       .  A
C284        C285   1.386       .  A
C284        H287   1.082       .  S
C285        C286   1.386       .  A
C285        C950   1.482       .  S
C286        H288   1.081       .  S
N289        N290   1.319       .  A
N289        C293   1.342       .  A
N289       Cu297   2.063       .  S
N290        C291   1.340       .  A
N290       Cu296   2.057       .  S
C291        C292   1.385       .  A
C291        H294   1.081       .  S
C292        C293   1.387       .  A
C292        C902   1.481       .  S
C293        H295   1.080       .  S
Cu296       N299   2.058       .  S
Cu297       N307   2.063       .  S
Cu298       N300   2.076       .  S
Cu298       N306   2.076       .  S
N299        N300   1.320       .  A
N299        C303   1.342       .  A
N300        C301   1.344       .  A
C301        C302   1.388       .  A
C301        H304   1.081       .  S
C302        C303   1.384       .  A
C302        C878   1.482       .  S
C303        H305   1.082       .  S
N306        N307   1.321       .  A
N306        C310   1.345       .  A
N307        C308   1.343       .  A
C308        C309   1.383       .  A
C308        H311   1.082       .  S
C309        C310   1.386       .  A
C309       C1262   1.479       .  S
C310        H312   1.082       .  S
C313        N314   1.358       .  A
C313        N318   1.359       .  A
C313        C869   1.486       .  S
N314        C315   1.358       .  A
C315        N316   1.358       .  A
C315        C926   1.488   1_655  S
N316        C317   1.359       .  A
C317        N318   1.359       .  A
C317        C845   1.482       .  S
N319        N320   1.323       .  A
N319        C323   1.349       .  A
N319       Cu327   2.087       .  S
N320        C321   1.342       .  A
N320       Cu326   2.072       .  S
C321        C322   1.382       .  A
C321        H324   1.082       .  S
C322        C323   1.387       .  A
C322       C1142   1.480       .  S
C323        H325   1.082       .  S
Cu326       N329   2.072       .  S
Cu327       N337   2.087       .  S
Cu328       N330   2.060       .  S
Cu328       N336   2.060       .  S
N329        N330   1.319       .  A
N329        C333   1.346       .  A
N330        C331   1.342       .  A
C331        C332   1.385       .  A
C331        H334   1.081       .  S
C332        C333   1.388       .  A
C332        C854   1.482       .  S
C333        H335   1.082       .  S
N336        N337   1.323       .  A
N336        C340   1.342       .  A
N337        C338   1.348       .  A
C338        C339   1.386       .  A
C338        H341   1.082       .  S
C339        C340   1.379       .  A
C339        C821   1.474       .  S
C340        H342   1.082       .  S
N343        N344   1.320       .  A
N343        C347   1.340       .  A
N343       Cu351   2.056       .  S
N344        C345   1.348       .  A
N344       Cu350   2.074       .  S
C345        C346   1.388       .  A
C345        H348   1.082       .  S
C346        C347   1.382       .  A
C346        C797   1.478       .  S
C347        H349   1.082       .  S
Cu350       N353   2.075       .  S
Cu351       N361   2.056       .  S
Cu352       N354   2.082       .  S
Cu352       N360   2.081       .  S
N353        N354   1.323       .  A
N353        C357   1.342       .  A
N354        C355   1.347       .  A
C355        C356   1.387       .  A
C355        H358   1.082       .  S
C356        C357   1.384       .  A
C356        C773   1.483       .  S
C357        H359   1.081       .  S
N360        N361   1.321       .  A
N360        C364   1.346       .  A
N361        C362   1.342       .  A
C362        C363   1.382       .  A
C362        H365   1.082       .  S
C363        C364   1.389       .  A
C363       C1349   1.482       .  S
C364        H366   1.081       .  S
N367        N368   1.323       .  A
N367        C371   1.340       .  A
N367       Cu375   2.057       .  S
N368        C369   1.349       .  A
N368       Cu374   2.095       .  S
C369        C370   1.389       .  A
C369        H372   1.082       .  S
C370        C371   1.380       .  A
C370        C749   1.480       .  S
C371        H373   1.082       .  S
Cu374       N377   2.094       .  S
Cu375       N385   2.055       .  S
Cu376       N378   2.047       .  S
Cu376       N384   2.047       .  S
N377        N378   1.322       .  A
N377        C381   1.349       .  A
N378        C379   1.340       .  A
C379        C380   1.378       .  A
C379        H382   1.082       .  S
C380        C381   1.390       .  A
C380        C734   1.478       .  S
C381        H383   1.082       .  S
N384        N385   1.317       .  A
N384        C388   1.340       .  A
N385        C386   1.342       .  A
C386        C387   1.386       .  A
C386        H389   1.082       .  S
C387        C388   1.383       .  A
C387        C893   1.475       .  S
C388        H390   1.081       .  S
N391        N392   1.320       .  A
N391        C395   1.343       .  A
N391       Cu399   2.060       .  S
N392        C393   1.342       .  A
N392       Cu398   2.066       .  S
C393        C394   1.386       .  A
C393        H396   1.081       .  S
C394        C395   1.385       .  A
C394        C941   1.479       .  S
C395        H397   1.082       .  S
Cu398       N401   2.066       .  S
Cu399       N409   2.061       .  S
Cu400       N402   2.073       .  S
Cu400       N408   2.073       .  S
N401        N402   1.321       .  A
N401        C405   1.343       .  A
N402        C403   1.344       .  A
C403        C404   1.386       .  A
C403        H406   1.082       .  S
C404        C405   1.385       .  A
C404        C686   1.481       .  S
C405        H407   1.081       .  S
N408        N409   1.321       .  A
N408        C412   1.345       .  A
N409        C410   1.342       .  A
C410        C411   1.383       .  A
C410        H413   1.082       .  S
C411        C412   1.385       .  A
C411        C710   1.478       .  S
C412        H414   1.082       .  S
N415        N416   1.319       .  A
N415        C419   1.341       .  A
N415       Cu423   2.055       .  S
N416        C417   1.345       .  A
N416       Cu422   2.069       .  S
C417        C418   1.389       .  A
C417        H420   1.081       .  S
C418        C419   1.385       .  A
C418       C1493   1.483       .  S
C419        H421   1.082       .  S
Cu422       N425   2.071       .  S
Cu423       N433   2.056       .  S
Cu424       N426   2.081       .  S
Cu424       N432   2.081       .  S
N425        N426   1.323       .  A
N425        C429   1.342       .  A
N426        C427   1.347       .  A
C427        C428   1.387       .  A
C427        H430   1.081       .  S
C428        C429   1.384       .  A
C428        C653   1.483       .  S
C429        H431   1.082       .  S
N432        N433   1.321       .  A
N432        C436   1.346       .  A
N433        C434   1.341       .  A
C434        C435   1.381       .  A
C434        H437   1.082       .  S
C435        C436   1.388       .  A
C435        C638   1.479       .  S
C436        H438   1.081       .  S
O439       Cu447   1.997   1_545  S
O439        C449   1.276       .  A
O440       Cu447   2.001       .  S
O440        C450   1.277       .  A
O441       Cu447   2.009   1_545  S
O441        C451   1.278       .  A
O442       Cu447   2.010       .  S
O442        C452   1.279       .  A
O443       Cu448   2.001       .  S
O443        C452   1.277       .  A
O444       Cu448   2.003   1_545  S
O444        C451   1.277       .  A
O445       Cu448   2.018       .  S
O445        C450   1.279       .  A
O446       Cu448   2.015       .  S
O446        C449   1.279   1_565  A
Cu447      Cu448   2.369       .  S
C449        C758   1.477       .  S
C450        C782   1.485       .  S
C451        C701   1.484       .  S
C452        C629   1.486       .  S
N453        N454   1.321       .  A
N453        C457   1.344       .  A
N453       Cu461   2.068       .  S
N454        C455   1.344       .  A
N454       Cu460   2.079       .  S
C455        C456   1.388       .  A
C455        H458   1.082       .  S
C456        C457   1.387       .  A
C456       C1430   1.486       .  S
C457        H459   1.081       .  S
Cu460       N463   2.080       .  S
Cu461       N471   2.068       .  S
Cu462       N464   2.080       .  S
Cu462       N470   2.079       .  S
N463        N464   1.322       .  A
N463        C467   1.346       .  A
N464        C465   1.346       .  A
C465        C466   1.388       .  A
C465        H468   1.081       .  S
C466        C467   1.388       .  A
C466        C614   1.489       .  S
C467        H469   1.082       .  S
N470        N471   1.322       .  A
N470        C474   1.346       .  A
N471        C472   1.344       .  A
C472        C473   1.384       .  A
C472        H475   1.082       .  S
C473        C474   1.385       .  A
C473        C581   1.479       .  S
C474        H476   1.082       .  S
N477        N478   1.318       .  A
N477        C481   1.340       .  A
N477       Cu485   2.052       .  S
N478        C479   1.346       .  A
N478       Cu484   2.074       .  S
C479        C480   1.390       .  A
C479        H482   1.082       .  S
C480        C481   1.385       .  A
C480        C830   1.485       .  S
C481        H483   1.081       .  S
Cu484       N487   2.076       .  S
Cu485       N495   2.052       .  S
Cu486       N488   2.087       .  S
Cu486       N494   2.086       .  S
N487        N488   1.324       .  A
N487        C491   1.342       .  A
N488        C489   1.348       .  A
C489        C490   1.388       .  A
C489        H492   1.082       .  S
C490        C491   1.383       .  A
C490        C557   1.484       .  S
C491        H493   1.082       .  S
N494        N495   1.322       .  A
N494        C498   1.348       .  A
N495        C496   1.340       .  A
C496        C497   1.379       .  A
C496        H499   1.082       .  S
C497        C498   1.388       .  A
C497        C533   1.476       .  S
C498        H500   1.082       .  S
O501       Cu509   1.996       .  S
O501        C511   1.276       .  A
O502       Cu509   1.997       .  S
O502        C512   1.276       .  A
O503       Cu509   2.031   1_455  S
O503        C513   1.281       .  A
O504       Cu509   2.029       .  S
O504        C514   1.282       .  A
O505       Cu510   1.979       .  S
O505        C514   1.273       .  A
O506       Cu510   1.984       .  S
O506        C513   1.276   1_655  A
O507       Cu510   2.021       .  S
O507        C512   1.280       .  A
O508       Cu510   2.021       .  S
O508        C511   1.280       .  A
Cu509      Cu510   2.368       .  S
C511        C806   1.483   1_655  S
C512        C725   1.483       .  S
C513        C590   1.487       .  S
C514        C542   1.485       .  S
O515       Cu523   2.017       .  S
O515        C525   1.280       .  A
O516       Cu523   2.020       .  S
O516        C526   1.280       .  A
O517       Cu523   2.009       .  S
O517        C527   1.278       .  A
O518       Cu523   2.013       .  S
O518        C528   1.278       .  A
O519       Cu524   2.014       .  S
O519        C528   1.280       .  A
O520       Cu524   2.020       .  S
O520        C527   1.279       .  A
O521       Cu524   1.994       .  S
O521        C526   1.276       .  A
O522       Cu524   1.994       .  S
O522        C525   1.276       .  A
Cu523      Cu524   2.368       .  S
C525        C662   1.482       .  S
C526        C677   1.486       .  S
C527        C605   1.485       .  S
C528        C566   1.489       .  S
C529        C530   1.401       .  A
C529        C534   1.397       .  A
C529        H539   1.084       .  S
C530        C531   1.409       .  A
C530        C535   1.478       .  S
C531        C532   1.400       .  A
C531        O536   1.372       .  S
C532        C533   1.403       .  A
C532        H537   1.083       .  S
C533        C534   1.411       .  A
C534        O538   1.372       .  S
C535        C540   1.407       .  A
C535        C544   1.399       .  A
O536        H552   0.992       .  S
O538        H549   0.992       .  S
C540        C541   1.400       .  A
C540        O545   1.372       .  S
C541        C542   1.405       .  A
C541        H546   1.083       .  S
C542        C543   1.417       .  A
C543        C544   1.397       .  A
C543        O547   1.372       .  S
C544        H548   1.084       .  S
O545        H550   0.992       .  S
O547        H551   0.992       .  S
C553        C554   1.405       .  A
C553        C558   1.404       .  A
C553        H563   1.083       .  S
C554        C555   1.409       .  A
C554        C559   1.488       .  S
C555        C556   1.399       .  A
C555        O560   1.373       .  S
C556        C557   1.404       .  A
C556        H561   1.083       .  S
C557        C558   1.411       .  A
C558        O562   1.371       .  S
C559        C564   1.409       .  A
C559        C568   1.404       .  A
O560        H576   0.992       .  S
O562        H573   0.992       .  S
C564        C565   1.398       .  A
C564        O569   1.371       .  S
C565        C566   1.405       .  A
C565        H570   1.083       .  S
C566        C567   1.415       .  A
C567        C568   1.404       .  A
C567        O571   1.371       .  S
C568        H572   1.084       .  S
O569        H574   0.991       .  S
O571        H575   0.992       .  S
C577        C578   1.404       .  A
C577        C582   1.397       .  A
C577        H587   1.083       .  S
C578        C579   1.409       .  A
C578        C583   1.486       .  S
C579        C580   1.402       .  A
C579        O584   1.371       .  S
C580        C581   1.405       .  A
C580        H585   1.083       .  S
C581        C582   1.409       .  A
C582        O586   1.371       .  S
C583        C588   1.406       .  A
C583        C592   1.406       .  A
O584        H600   0.992       .  S
O586        H597   0.992       .  S
C588        C589   1.395       .  A
C588        O593   1.373       .  S
C589        C590   1.407       .  A
C589        H594   1.083       .  S
C590        C591   1.412       .  A
C591        C592   1.405       .  A
C591        O595   1.371       .  S
C592        H596   1.083       .  S
O593        H598   0.992       .  S
O595        H599   0.992       .  S
C601        C602   1.404       .  A
C601        C606   1.405       .  A
C601        H611   1.083       .  S
C602        C603   1.407       .  A
C602        C607   1.485       .  S
C603        C604   1.400       .  A
C603        O608   1.372       .  S
C604        C605   1.405       .  A
C604        H609   1.084       .  S
C605        C606   1.412       .  A
C606        O610   1.371       .  S
C607        C612   1.408       .  A
C607        C616   1.403       .  A
O608        H624   0.992       .  S
O610        H621   0.992       .  S
C612        C613   1.400       .  A
C612        O617   1.371       .  S
C613        C614   1.406       .  A
C613        H618   1.083       .  S
C614        C615   1.414       .  A
C615        C616   1.403       .  A
C615        O619   1.371       .  S
C616        H620   1.084       .  S
O617        H622   0.992       .  S
O619        H623   0.992       .  S
C625        C626   1.402       .  A
C625        C630   1.398       .  A
C625        H635   1.084       .  S
C626        C627   1.408       .  A
C626        C631   1.483       .  S
C627        C628   1.401       .  A
C627        O632   1.373       .  S
C628        C629   1.407       .  A
C628        H633   1.083       .  S
C629        C630   1.414       .  A
C630        O634   1.371       .  S
C631        C636   1.409       .  A
C631        C640   1.404       .  A
O632        H648   0.992       .  S
O634        H645   0.992       .  S
C636        C637   1.399       .  A
C636        O641   1.371       .  S
C637        C638   1.405       .  A
C637        H642   1.083       .  S
C638        C639   1.409       .  A
C639        C640   1.399       .  A
C639        O643   1.371       .  S
C640        H644   1.084       .  S
O641        H646   0.992       .  S
O643        H647   0.992       .  S
C649        C650   1.405       .  A
C649        C654   1.403       .  A
C649        H659   1.083       .  S
C650        C651   1.406       .  A
C650        C655   1.483       .  S
C651        C652   1.396       .  A
C651        O656   1.372       .  S
C652        C653   1.405       .  A
C652        H657   1.083       .  S
C653        C654   1.411       .  A
C654        O658   1.371       .  S
C655        C660   1.406       .  A
C655        C664   1.404       .  A
O656        H672   0.992       .  S
O658        H669   0.992       .  S
C660        C661   1.400       .  A
C660        O665   1.372       .  S
C661        C662   1.408       .  A
C661        H666   1.083       .  S
C662        C663   1.410       .  A
C663        C664   1.399       .  A
C663        O667   1.372       .  S
C664        H668   1.084       .  S
O665        H670   0.992       .  S
O667        H671   0.992       .  S
C673        C674   1.401       .  A
C673        C678   1.398       .  A
C673        H683   1.084       .  S
C674        C675   1.408       .  A
C674        C679   1.482       .  S
C675        C676   1.402       .  A
C675        O680   1.373       .  S
C676        C677   1.406       .  A
C676        H681   1.083       .  S
C677        C678   1.415       .  A
C678        O682   1.372       .  S
C679        C684   1.408       .  A
C679        C688   1.403       .  A
O680        H696   0.992       .  S
O682        H693   0.992       .  S
C684        C685   1.399       .  A
C684        O689   1.371       .  S
C685        C686   1.405       .  A
C685        H690   1.083       .  S
C686        C687   1.411       .  A
C687        C688   1.399       .  A
C687        O691   1.371       .  S
C688        H692   1.084       .  S
O689        H694   0.992       .  S
O691        H695   0.992       .  S
C697        C698   1.402       .  A
C697        C702   1.397       .  A
C697        H707   1.084       .  S
C698        C699   1.407       .  A
C698        C703   1.481       .  S
C699        C700   1.402       .  A
C699        O704   1.373       .  S
C700        C701   1.407       .  A
C700        H705   1.083       .  S
C701        C702   1.413       .  A
C702        O706   1.371       .  S
C703        C708   1.409       .  A
C703        C712   1.403       .  A
O704        H720   0.992       .  S
O706        H717   0.992       .  S
C708        C709   1.399       .  A
C708        O713   1.371       .  S
C709        C710   1.404       .  A
C709        H714   1.083       .  S
C710        C711   1.410       .  A
C711        C712   1.397       .  A
C711        O715   1.371       .  S
C712        H716   1.084       .  S
O713        H718   0.992       .  S
O715        H719   0.992       .  S
C721        C722   1.404       .  A
C721        C726   1.398       .  A
C721        H731   1.084       .  S
C722        C723   1.409       .  A
C722        C727   1.485       .  S
C723        C724   1.403       .  A
C723        O728   1.373       .  S
C724        C725   1.407       .  A
C724        H729   1.084       .  S
C725        C726   1.410       .  A
C726        O730   1.371       .  S
C727        C732   1.409       .  A
C727        C736   1.406       .  A
O728        H744   0.992       .  S
O730        H741   0.992       .  S
C732        C733   1.399       .  A
C732        O737   1.371       .  S
C733        C734   1.405       .  A
C733        H738   1.083       .  S
C734        C735   1.407       .  A
C735        C736   1.399       .  A
C735        O739   1.371       .  S
C736        H740   1.084       .  S
O737        H742   0.992       .  S
O739        H743   0.992       .  S
C745        C746   1.400       .  A
C745        C750   1.397       .  A
C745        H755   1.084       .  S
C746        C747   1.408       .  A
C746        C751   1.478       .  S
C747        C748   1.401       .  A
C747        O752   1.371       .  S
C748        C749   1.405       .  A
C748        H753   1.083       .  S
C749        C750   1.412       .  A
C750        O754   1.371       .  S
C751        C756   1.408       .  A
C751        C760   1.401       .  A
O752        H768   0.992       .  S
O754        H765   0.992       .  S
C756        C757   1.402       .  A
C756        O761   1.372       .  S
C757        C758   1.404       .  A
C757        H762   1.084       .  S
C758        C759   1.411       .  A
C759        C760   1.397       .  A
C759        O763   1.372       .  S
C760        H764   1.084       .  S
O761        H766   0.992       .  S
O763        H767   0.992       .  S
C769        C770   1.402       .  A
C769        C774   1.398       .  A
C769        H779   1.083       .  S
C770        C771   1.411       .  A
C770        C775   1.486       .  S
C771        C772   1.401       .  A
C771        O776   1.372       .  S
C772        C773   1.405       .  A
C772        H777   1.083       .  S
C773        C774   1.412       .  A
C774        O778   1.371       .  S
C775        C780   1.410       .  A
C775        C784   1.402       .  A
O776        H792   0.992       .  S
O778        H789   0.992       .  S
C780        C781   1.403       .  A
C780        O785   1.372       .  S
C781        C782   1.406       .  A
C781        H786   1.083       .  S
C782        C783   1.413       .  A
C783        C784   1.398       .  A
C783        O787   1.371       .  S
C784        H788   1.084       .  S
O785        H790   0.992       .  S
O787        H791   0.992       .  S
C793        C794   1.407       .  A
C793        C798   1.403       .  A
C793        H803   1.083       .  S
C794        C795   1.409       .  A
C794        C799   1.486       .  S
C795        C796   1.395       .  A
C795        O800   1.372       .  S
C796        C797   1.403       .  A
C796        H801   1.083       .  S
C797        C798   1.409       .  A
C798        O802   1.371       .  S
C799        C804   1.407       .  A
C799        C808   1.406       .  A
O800        H816   0.992       .  S
O802        H813   0.992       .  S
C804        C805   1.400       .  A
C804        O809   1.372       .  S
C805        C806   1.407       .  A
C805        H810   1.083       .  S
C806        C807   1.410       .  A
C807        C808   1.400       .  A
C807        O811   1.371   1_455  S
C808        H812   1.084       .  S
O809        H814   0.992       .  S
O811        H815   0.992       .  S
C817        C818   1.403       .  A
C817        C822   1.399       .  A
C817        H827   1.083       .  S
C818        C819   1.410       .  A
C818        C823   1.481       .  S
C819        C820   1.399       .  A
C819        O824   1.372       .  S
C820        C821   1.402       .  A
C820        H825   1.084       .  S
C821        C822   1.408       .  A
C822        O826   1.372       .  S
C823        C828   1.408       .  A
C823        C832   1.400       .  A
O824        H840   0.991       .  S
O826        H837   0.992       .  S
C828        C829   1.401       .  A
C828        O833   1.372       .  S
C829        C830   1.406       .  A
C829        H834   1.083       .  S
C830        C831   1.414       .  A
C831        C832   1.397       .  A
C831        O835   1.371       .  S
C832        H836   1.084       .  S
O833        H838   0.992       .  S
O835        H839   0.992       .  S
C841        C842   1.404       .  A
C841        C846   1.401       .  A
C841        H851   1.083       .  S
C842        C843   1.409       .  A
C842        C847   1.484       .  S
C843        C844   1.398       .  A
C843        O848   1.372       .  S
C844        C845   1.405       .  A
C844        H849   1.083       .  S
C845        C846   1.411       .  A
C846        O850   1.372       .  S
C847        C852   1.409       .  A
C847        C856   1.403       .  A
O848        H864   0.992       .  S
O850        H861   0.992       .  S
C852        C853   1.401       .  A
C852        O857   1.372       .  S
C853        C854   1.405       .  A
C853        H858   1.083       .  S
C854        C855   1.411       .  A
C855        C856   1.398       .  A
C855        O859   1.371       .  S
C856        H860   1.084       .  S
O857        H862   0.992       .  S
O859        H863   0.992       .  S
C865        C866   1.401   1_565  A
C865        C870   1.400       .  A
C865        H875   1.084       .  S
C866        C867   1.406       .  A
C866        C871   1.478       .  S
C867        C868   1.397       .  A
C867        O872   1.372       .  S
C868        C869   1.408   1_545  A
C868        H873   1.083       .  S
C869        C870   1.414       .  A
C870        O874   1.371       .  S
C871        C876   1.406       .  A
C871        C880   1.402       .  A
O872        H888   0.992       .  S
O874        H885   0.992       .  S
C876        C877   1.400       .  A
C876        O881   1.372       .  S
C877        C878   1.407       .  A
C877        H882   1.083       .  S
C878        C879   1.411       .  A
C879        C880   1.397       .  A
C879        O883   1.371       .  S
C880        H884   1.084       .  S
O881        H886   0.992       .  S
O883        H887   0.992       .  S
C889        C890   1.400       .  A
C889        C894   1.396       .  A
C889        H899   1.084       .  S
C890        C891   1.406       .  A
C890        C895   1.473       .  S
C891        C892   1.398       .  A
C891        O896   1.373       .  S
C892        C893   1.404       .  A
C892        H897   1.083       .  S
C893        C894   1.411       .  A
C894        O898   1.372       .  S
C895        C900   1.405       .  A
C895        C904   1.401       .  A
O896        H912   0.992       .  S
O898        H909   0.992       .  S
C900        C901   1.395       .  A
C900        O905   1.372       .  S
C901        C902   1.407       .  A
C901        H906   1.082       .  S
C902        C903   1.413       .  A
C903        C904   1.396       .  A
C903        O907   1.370       .  S
C904        H908   1.084       .  S
O905        H910   0.992       .  S
O907        H911   0.992       .  S
C913        C914   1.400       .  A
C913        C918   1.397       .  A
C913        H923   1.084       .  S
C914        C915   1.404       .  A
C914        C919   1.473       .  S
C915        C916   1.399       .  A
C915        O920   1.371       .  S
C916        C917   1.408       .  A
C916        H921   1.083       .  S
C917        C918   1.412       .  A
C918        O922   1.371       .  S
C919        C924   1.403       .  A
C919        C928   1.399       .  A
O920        H936   0.992       .  S
O922        H933   0.992       .  S
C924        C925   1.397       .  A
C924        O929   1.372       .  S
C925        C926   1.409   1_545  A
C925        H930   1.083       .  S
C926        C927   1.416       .  A
C927        C928   1.400   1_565  A
C927        O931   1.371       .  S
C928        H932   1.084   1_545  S
O929        H934   0.992       .  S
O931        H935   0.992       .  S
C937        C938   1.401       .  A
C937        C942   1.396       .  A
C937        H947   1.083       .  S
C938        C939   1.408       .  A
C938        C943   1.477       .  S
C939        C940   1.398       .  A
C939        O944   1.372       .  S
C940        C941   1.405       .  A
C940        H945   1.083       .  S
C941        C942   1.411       .  A
C942        O946   1.371       .  S
C943        C948   1.405       .  A
C943        C952   1.402       .  A
O944        H960   0.992       .  S
O946        H957   0.992       .  S
C948        C949   1.398       .  A
C948        O953   1.372       .  S
C949        C950   1.406       .  A
C949        H954   1.083       .  S
C950        C951   1.412       .  A
C951        C952   1.398       .  A
C951        O955   1.371       .  S
C952        H956   1.084       .  S
O953        H958   0.992       .  S
O955        H959   0.992       .  S
C961        C962   1.401       .  A
C961        C966   1.395       .  A
C961        H971   1.084       .  S
C962        C963   1.409       .  A
C962        C967   1.476       .  S
C963        C964   1.399       .  A
C963        O968   1.372       .  S
C964        C965   1.404       .  A
C964        H969   1.083       .  S
C965        C966   1.410       .  A
C966        O970   1.371       .  S
C967        C972   1.408       .  A
C967        C976   1.400       .  A
O968        H984   0.992       .  S
O970        H981   0.992       .  S
C972        C973   1.397       .  A
C972        O977   1.372       .  S
C973        C974   1.404       .  A
C973        H978   1.083       .  S
C974        C975   1.413       .  A
C975        C976   1.398       .  A
C975        O979   1.372   1_554  S
C976        H980   1.084   1_554  S
O977        H982   0.992       .  S
O979        H983   0.992       .  S
C985        C986   1.401       .  A
C985        C990   1.400       .  A
C985        H995   1.084       .  S
C986        C987   1.404       .  A
C986        C991   1.475       .  S
C987        C988   1.398       .  A
C987        O992   1.372       .  S
C988        C989   1.406       .  A
C988        H993   1.083       .  S
C989        C990   1.412       .  A
C990        O994   1.371       .  S
C991        C996   1.405       .  A
C991       C1000   1.398       .  A
O992       H1008   0.991       .  S
O994       H1005   0.992       .  S
C996        C997   1.401       .  A
C996       O1001   1.372       .  S
C997        C998   1.408       .  A
C997       H1002   1.083       .  S
C998        C999   1.415       .  A
C999       C1000   1.397       .  A
C999       O1003   1.370       .  S
C1000      H1004   1.084       .  S
O1001      H1006   0.992       .  S
O1003      H1007   0.992       .  S
C1009      C1010   1.405       .  A
C1009      C1014   1.398       .  A
C1009      H1019   1.084       .  S
C1010      C1011   1.411       .  A
C1010      C1015   1.485       .  S
C1011      C1012   1.401       .  A
C1011      O1016   1.373       .  S
C1012      C1013   1.402       .  A
C1012      H1017   1.084       .  S
C1013      C1014   1.408       .  A
C1014      O1018   1.372       .  S
C1015      C1020   1.409       .  A
C1015      C1024   1.403       .  A
O1016      H1032   0.992       .  S
O1018      H1029   0.992       .  S
C1020      C1021   1.400       .  A
C1020      O1025   1.371   1_556  S
C1021      C1022   1.406       .  A
C1021      H1026   1.083   1_556  S
C1022      C1023   1.414       .  A
C1023      C1024   1.398       .  A
C1023      O1027   1.372       .  S
C1024      H1028   1.084       .  S
O1025      H1030   0.991       .  S
O1027      H1031   0.992       .  S
C1033      C1034   1.403       .  A
C1033      C1038   1.403       .  A
C1033      H1043   1.084       .  S
C1034      C1035   1.408       .  A
C1034      C1039   1.487       .  S
C1035      C1036   1.402       .  A
C1035      O1040   1.372       .  S
C1036      C1037   1.407       .  A
C1036      H1041   1.083       .  S
C1037      C1038   1.416       .  A
C1038      O1042   1.372       .  S
C1039      C1044   1.409       .  A
C1039      C1048   1.405       .  A
O1040      H1056   0.992       .  S
O1042      H1053   0.992       .  S
C1044      C1045   1.400       .  A
C1044      O1049   1.371       .  S
C1045      C1046   1.404       .  A
C1045      H1050   1.083       .  S
C1046      C1047   1.411       .  A
C1047      C1048   1.403       .  A
C1047      O1051   1.371       .  S
C1048      H1052   1.084       .  S
O1049      H1054   0.992       .  S
O1051      H1055   0.992       .  S
C1057      C1058   1.402       .  A
C1057      C1062   1.398       .  A
C1057      H1067   1.083       .  S
C1058      C1059   1.407       .  A
C1058      C1063   1.479       .  S
C1059      C1060   1.396       .  A
C1059      O1064   1.372       .  S
C1060      C1061   1.407       .  A
C1060      H1065   1.083       .  S
C1061      C1062   1.413       .  A
C1062      O1066   1.372   1_554  S
C1063      C1068   1.408       .  A
C1063      C1072   1.403       .  A
O1064      H1080   0.992       .  S
O1066      H1077   0.992       .  S
C1068      C1069   1.399       .  A
C1068      O1073   1.372       .  S
C1069      C1070   1.405       .  A
C1069      H1074   1.083       .  S
C1070      C1071   1.408       .  A
C1071      C1072   1.396       .  A
C1071      O1075   1.371       .  S
C1072      H1076   1.084       .  S
O1073      H1078   0.992       .  S
O1075      H1079   0.992       .  S
C1081      C1082   1.402       .  A
C1081      C1086   1.400       .  A
C1081      H1091   1.084       .  S
C1082      C1083   1.405       .  A
C1082      C1087   1.475       .  S
C1083      C1084   1.397       .  A
C1083      O1088   1.372       .  S
C1084      C1085   1.405       .  A
C1084      H1089   1.083       .  S
C1085      C1086   1.409       .  A
C1086      O1090   1.372       .  S
C1087      C1092   1.406       .  A
C1087      C1096   1.401       .  A
O1088      H1104   0.992       .  S
O1090      H1101   0.992       .  S
C1092      C1093   1.398       .  A
C1092      O1097   1.372       .  S
C1093      C1094   1.404       .  A
C1093      H1098   1.084       .  S
C1094      C1095   1.411       .  A
C1095      C1096   1.398       .  A
C1095      O1099   1.372       .  S
C1096      H1100   1.084       .  S
O1097      H1102   0.992       .  S
O1099      H1103   0.992       .  S
C1105      C1106   1.404       .  A
C1105      C1110   1.402       .  A
C1105      H1115   1.083       .  S
C1106      C1107   1.409       .  A
C1106      C1111   1.490       .  S
C1107      C1108   1.402       .  A
C1107      O1112   1.372       .  S
C1108      C1109   1.408       .  A
C1108      H1113   1.083   1_554  S
C1109      C1110   1.415       .  A
C1110      O1114   1.371       .  S
C1111      C1116   1.409       .  A
C1111      C1120   1.405       .  A
O1112      H1128   0.992   1_554  S
O1114      H1125   0.992   1_455  S
C1116      C1117   1.403       .  A
C1116      O1121   1.373       .  S
C1117      C1118   1.408       .  A
C1117      H1122   1.083       .  S
C1118      C1119   1.410       .  A
C1119      C1120   1.401       .  A
C1119      O1123   1.371       .  S
C1120      H1124   1.083       .  S
O1121      H1126   0.992       .  S
O1123      H1127   0.992       .  S
C1129      C1130   1.403       .  A
C1129      C1134   1.401       .  A
C1129      H1139   1.083       .  S
C1130      C1131   1.407       .  A
C1130      C1135   1.482       .  S
C1131      C1132   1.399       .  A
C1131      O1136   1.371       .  S
C1132      C1133   1.406       .  A
C1132      H1137   1.083       .  S
C1133      C1134   1.412       .  A
C1134      O1138   1.371       .  S
C1135      C1140   1.409       .  A
C1135      C1144   1.402       .  A
O1136      H1152   0.992       .  S
O1138      H1149   0.992       .  S
C1140      C1141   1.403       .  A
C1140      O1145   1.372       .  S
C1141      C1142   1.404       .  A
C1141      H1146   1.083       .  S
C1142      C1143   1.410       .  A
C1143      C1144   1.398       .  A
C1143      O1147   1.371       .  S
C1144      H1148   1.084       .  S
O1145      H1150   0.992       .  S
O1147      H1151   0.992       .  S
C1153      C1154   1.404       .  A
C1153      C1158   1.403       .  A
C1153      H1163   1.084       .  S
C1154      C1155   1.405       .  A
C1154      C1159   1.479       .  S
C1155      C1156   1.395       .  A
C1155      O1160   1.372       .  S
C1156      C1157   1.406       .  A
C1156      H1161   1.083       .  S
C1157      C1158   1.411       .  A
C1158      O1162   1.371       .  S
C1159      C1164   1.406       .  A
C1159      C1168   1.403       .  A
O1160      H1176   0.992       .  S
O1162      H1173   0.992       .  S
C1164      C1165   1.400       .  A
C1164      O1169   1.371   1_556  S
C1165      C1166   1.407       .  A
C1165      H1170   1.083   1_556  S
C1166      C1167   1.410       .  A
C1167      C1168   1.397       .  A
C1167      O1171   1.372       .  S
C1168      H1172   1.084       .  S
O1169      H1174   0.992       .  S
O1171      H1175   0.992       .  S
C1177      C1178   1.401       .  A
C1177      C1182   1.395       .  A
C1177      H1187   1.084       .  S
C1178      C1179   1.407       .  A
C1178      C1183   1.475       .  S
C1179      C1180   1.401       .  A
C1179      O1184   1.372       .  S
C1180      C1181   1.405       .  A
C1180      H1185   1.084   1_556  S
C1181      C1182   1.411       .  A
C1182      O1186   1.372       .  S
C1183      C1188   1.408       .  A
C1183      C1192   1.400       .  A
O1184      H1200   0.992   1_556  S
O1186      H1197   0.992       .  S
C1188      C1189   1.399       .  A
C1188      O1193   1.372       .  S
C1189      C1190   1.405       .  A
C1189      H1194   1.083       .  S
C1190      C1191   1.413       .  A
C1191      C1192   1.396       .  A
C1191      O1195   1.371       .  S
C1192      H1196   1.084       .  S
O1193      H1198   0.992       .  S
O1195      H1199   0.992       .  S
C1201      C1202   1.403       .  A
C1201      C1206   1.399       .  A
C1201      H1211   1.083       .  S
C1202      C1203   1.407       .  A
C1202      C1207   1.483       .  S
C1203      C1204   1.400   1_554  A
C1203      O1208   1.372   1_554  S
C1204      C1205   1.407   1_556  A
C1204      H1209   1.083       .  S
C1205      C1206   1.413       .  A
C1206      O1210   1.371       .  S
C1207      C1212   1.408       .  A
C1207      C1216   1.404       .  A
O1208      H1224   0.992       .  S
O1210      H1221   0.992       .  S
C1212      C1213   1.400       .  A
C1212      O1217   1.372       .  S
C1213      C1214   1.404       .  A
C1213      H1218   1.083       .  S
C1214      C1215   1.411       .  A
C1215      C1216   1.400       .  A
C1215      O1219   1.371       .  S
C1216      H1220   1.084       .  S
O1217      H1222   0.992       .  S
O1219      H1223   0.992       .  S
C1225      C1226   1.403       .  A
C1225      C1230   1.398       .  A
C1225      H1235   1.084       .  S
C1226      C1227   1.410       .  A
C1226      C1231   1.485       .  S
C1227      C1228   1.402       .  A
C1227      O1232   1.371       .  S
C1228      C1229   1.404       .  A
C1228      H1233   1.083   1_554  S
C1229      C1230   1.410       .  A
C1230      O1234   1.372   1_455  S
C1231      C1236   1.409       .  A
C1231      C1240   1.402       .  A
O1232      H1248   0.992       .  S
O1234      H1245   0.992       .  S
C1236      C1237   1.399       .  A
C1236      O1241   1.372       .  S
C1237      C1238   1.407       .  A
C1237      H1242   1.082       .  S
C1238      C1239   1.414       .  A
C1239      C1240   1.401       .  A
C1239      O1243   1.370       .  S
C1240      H1244   1.083       .  S
O1241      H1246   0.992       .  S
O1243      H1247   0.992       .  S
C1249      C1250   1.399       .  A
C1249      C1254   1.398       .  A
C1249      H1259   1.084       .  S
C1250      C1251   1.404       .  A
C1250      C1255   1.472       .  S
C1251      C1252   1.401       .  A
C1251      O1256   1.372       .  S
C1252      C1253   1.408       .  A
C1252      H1257   1.083       .  S
C1253      C1254   1.413       .  A
C1254      O1258   1.371       .  S
C1255      C1260   1.404       .  A
C1255      C1264   1.400       .  A
O1256      H1272   0.992       .  S
O1258      H1269   0.992       .  S
C1260      C1261   1.399       .  A
C1260      O1265   1.371       .  S
C1261      C1262   1.406       .  A
C1261      H1266   1.083       .  S
C1262      C1263   1.411       .  A
C1263      C1264   1.399       .  A
C1263      O1267   1.371       .  S
C1264      H1268   1.084       .  S
O1265      H1270   0.992       .  S
O1267      H1271   0.992       .  S
C1273      C1274   1.403       .  A
C1273      C1278   1.399       .  A
C1273      H1283   1.084       .  S
C1274      C1275   1.410       .  A
C1274      C1279   1.485       .  S
C1275      C1276   1.403       .  A
C1275      O1280   1.372       .  S
C1276      C1277   1.405       .  A
C1276      H1281   1.083       .  S
C1277      C1278   1.409       .  A
C1278      O1282   1.371       .  S
C1279      C1284   1.408       .  A
C1279      C1288   1.403       .  A
O1280      H1296   0.992       .  S
O1282      H1293   0.992       .  S
C1284      C1285   1.401       .  A
C1284      O1289   1.371       .  S
C1285      C1286   1.407       .  A
C1285      H1290   1.083   1_556  S
C1286      C1287   1.412       .  A
C1287      C1288   1.400       .  A
C1287      O1291   1.371       .  S
C1288      H1292   1.084       .  S
O1289      H1294   0.992       .  S
O1291      H1295   0.992       .  S
C1297      C1298   1.401       .  A
C1297      C1302   1.401       .  A
C1297      H1307   1.084       .  S
C1298      C1299   1.407       .  A
C1298      C1303   1.481       .  S
C1299      C1300   1.401       .  A
C1299      O1304   1.373       .  S
C1300      C1301   1.407       .  A
C1300      H1305   1.083       .  S
C1301      C1302   1.414       .  A
C1302      O1306   1.371   1_556  S
C1303      C1308   1.409       .  A
C1303      C1312   1.403       .  A
O1304      H1320   0.992       .  S
O1306      H1317   0.992       .  S
C1308      C1309   1.398       .  A
C1308      O1313   1.371       .  S
C1309      C1310   1.403       .  A
C1309      H1314   1.084       .  S
C1310      C1311   1.410       .  A
C1311      C1312   1.401       .  A
C1311      O1315   1.371       .  S
C1312      H1316   1.084       .  S
O1313      H1318   0.992       .  S
O1315      H1319   0.992       .  S
C1321      C1322   1.401       .  A
C1321      C1326   1.398       .  A
C1321      H1331   1.084       .  S
C1322      C1323   1.405   1_455  A
C1322      C1327   1.478       .  S
C1323      C1324   1.398       .  A
C1323      O1328   1.372       .  S
C1324      C1325   1.409       .  A
C1324      H1329   1.083       .  S
C1325      C1326   1.414   1_655  A
C1326      O1330   1.371       .  S
C1327      C1332   1.408       .  A
C1327      C1336   1.403       .  A
O1328      H1344   0.992       .  S
O1330      H1341   0.992       .  S
C1332      C1333   1.397       .  A
C1332      O1337   1.372       .  S
C1333      C1334   1.404       .  A
C1333      H1338   1.083       .  S
C1334      C1335   1.411       .  A
C1335      C1336   1.399       .  A
C1335      O1339   1.371       .  S
C1336      H1340   1.084   1_455  S
O1337      H1342   0.992       .  S
O1339      H1343   0.992   1_455  S
C1345      C1346   1.400       .  A
C1345      C1350   1.399       .  A
C1345      H1355   1.084       .  S
C1346      C1347   1.404       .  A
C1346      C1351   1.474       .  S
C1347      C1348   1.400       .  A
C1347      O1352   1.372       .  S
C1348      C1349   1.408       .  A
C1348      H1353   1.083       .  S
C1349      C1350   1.410       .  A
C1350      O1354   1.371       .  S
C1351      C1356   1.404       .  A
C1351      C1360   1.402       .  A
O1352      H1368   0.992       .  S
O1354      H1365   0.992       .  S
C1356      C1357   1.397       .  A
C1356      O1361   1.372       .  S
C1357      C1358   1.406       .  A
C1357      H1362   1.083       .  S
C1358      C1359   1.411       .  A
C1359      C1360   1.401       .  A
C1359      O1363   1.371       .  S
C1360      H1364   1.084       .  S
O1361      H1366   0.992       .  S
O1363      H1367   0.992       .  S
C1369      C1370   1.401       .  A
C1369      C1374   1.403       .  A
C1369      H1379   1.084       .  S
C1370      C1371   1.403       .  A
C1370      C1375   1.475       .  S
C1371      C1372   1.395       .  A
C1371      O1376   1.372       .  S
C1372      C1373   1.408       .  A
C1372      H1377   1.082       .  S
C1373      C1374   1.414       .  A
C1374      O1378   1.370       .  S
C1375      C1380   1.405       .  A
C1375      C1384   1.401       .  A
O1376      H1392   0.992       .  S
O1378      H1389   0.992       .  S
C1380      C1381   1.400       .  A
C1380      O1385   1.371       .  S
C1381      C1382   1.404       .  A
C1381      H1386   1.083       .  S
C1382      C1383   1.410       .  A
C1383      C1384   1.398       .  A
C1383      O1387   1.371       .  S
C1384      H1388   1.084       .  S
O1385      H1390   0.992       .  S
O1387      H1391   0.992       .  S
C1393      C1394   1.401   1_655  A
C1393      C1398   1.397       .  A
C1393      H1403   1.084       .  S
C1394      C1395   1.406       .  A
C1394      C1399   1.478       .  S
C1395      C1396   1.398       .  A
C1395      O1400   1.372       .  S
C1396      C1397   1.407   1_455  A
C1396      H1401   1.083       .  S
C1397      C1398   1.414       .  A
C1398      O1402   1.371       .  S
C1399      C1404   1.406       .  A
C1399      C1408   1.404       .  A
O1400      H1416   0.992       .  S
O1402      H1413   0.992       .  S
C1404      C1405   1.396       .  A
C1404      O1409   1.372       .  S
C1405      C1406   1.403       .  A
C1405      H1410   1.083       .  S
C1406      C1407   1.409       .  A
C1407      C1408   1.401       .  A
C1407      O1411   1.371       .  S
C1408      H1412   1.084       .  S
O1409      H1414   0.992   1_455  S
O1411      H1415   0.992       .  S
C1417      C1418   1.405       .  A
C1417      C1422   1.403       .  A
C1417      H1427   1.083       .  S
C1418      C1419   1.409       .  A
C1418      C1423   1.486       .  S
C1419      C1420   1.397       .  A
C1419      O1424   1.372       .  S
C1420      C1421   1.405       .  A
C1420      H1425   1.083       .  S
C1421      C1422   1.411       .  A
C1422      O1426   1.371       .  S
C1423      C1428   1.408       .  A
C1423      C1432   1.404       .  A
O1424      H1440   0.992       .  S
O1426      H1437   0.992       .  S
C1428      C1429   1.400       .  A
C1428      O1433   1.372       .  S
C1429      C1430   1.406       .  A
C1429      H1434   1.083       .  S
C1430      C1431   1.413       .  A
C1431      C1432   1.399       .  A
C1431      O1435   1.371       .  S
C1432      H1436   1.084       .  S
O1433      H1438   0.992       .  S
O1435      H1439   0.992       .  S
C1441      C1442   1.402       .  A
C1441      C1446   1.402       .  A
C1441      H1451   1.084       .  S
C1442      C1443   1.405       .  A
C1442      C1447   1.479       .  S
C1443      C1444   1.400       .  A
C1443      O1448   1.371       .  S
C1444      C1445   1.406       .  A
C1444      H1449   1.083       .  S
C1445      C1446   1.412       .  A
C1446      O1450   1.371       .  S
C1447      C1452   1.403       .  A
C1447      C1456   1.403       .  A
O1448      H1464   0.992       .  S
O1450      H1461   0.992       .  S
C1452      C1453   1.398       .  A
C1452      O1457   1.372       .  S
C1453      C1454   1.409       .  A
C1453      H1458   1.082       .  S
C1454      C1455   1.413       .  A
C1455      C1456   1.405       .  A
C1455      O1459   1.370       .  S
C1456      H1460   1.084       .  S
O1457      H1462   0.992       .  S
O1459      H1463   0.992       .  S
C1465      C1466   1.399       .  A
C1465      C1470   1.397       .  A
C1465      H1475   1.084       .  S
C1466      C1467   1.405       .  A
C1466      C1471   1.473       .  S
C1467      C1468   1.397       .  A
C1467      O1472   1.372       .  S
C1468      C1469   1.406       .  A
C1468      H1473   1.082       .  S
C1469      C1470   1.414       .  A
C1470      O1474   1.370       .  S
C1471      C1476   1.404       .  A
C1471      C1480   1.399       .  A
O1472      H1488   0.992       .  S
O1474      H1485   0.992       .  S
C1476      C1477   1.398       .  A
C1476      O1481   1.372       .  S
C1477      C1478   1.409       .  A
C1477      H1482   1.083       .  S
C1478      C1479   1.416       .  A
C1479      C1480   1.397       .  A
C1479      O1483   1.371       .  S
C1480      H1484   1.084       .  S
O1481      H1486   0.992       .  S
O1483      H1487   0.992       .  S
C1489      C1490   1.400       .  A
C1489      C1494   1.398       .  A
C1489      H1499   1.084       .  S
C1490      C1491   1.403       .  A
C1490      C1495   1.471       .  S
C1491      C1492   1.397       .  A
C1491      O1496   1.372       .  S
C1492      C1493   1.407       .  A
C1492      H1497   1.082       .  S
C1493      C1494   1.413       .  A
C1494      O1498   1.370       .  S
C1495      C1500   1.405       .  A
C1495      C1504   1.401       .  A
O1496      H1512   0.992       .  S
O1498      H1509   0.992       .  S
C1500      C1501   1.395       .  A
C1500      O1505   1.372       .  S
C1501      C1502   1.405       .  A
C1501      H1506   1.083       .  S
C1502      C1503   1.410       .  A
C1503      C1504   1.398       .  A
C1503      O1507   1.371       .  S
C1504      H1508   1.084       .  S
O1505      H1510   0.992       .  S
O1507      H1511   0.992       .  S
C1513      C1514   1.400       .  A
C1513      C1518   1.396       .  A
C1513      H1523   1.084       .  S
C1514      C1515   1.406       .  A
C1514      C1519   1.477       .  S
C1515      C1516   1.400       .  A
C1515      O1520   1.372       .  S
C1516      C1517   1.408       .  A
C1516      H1521   1.082       .  S
C1517      C1518   1.413       .  A
C1518      O1522   1.370       .  S
C1519      C1524   1.406       .  A
C1519      C1528   1.403       .  A
O1520      H1536   0.991       .  S
O1522      H1533   0.992       .  S
C1524      C1525   1.396       .  A
C1524      O1529   1.373       .  S
C1525      C1526   1.404       .  A
C1525      H1530   1.083       .  S
C1526      C1527   1.409       .  A
C1527      C1528   1.400       .  A
C1527      O1531   1.371       .  S
C1528      H1532   1.083       .  S
O1529      H1534   0.992       .  S
O1531      H1535   0.992       .  S
