geometry optimzed in LAMMPS
_audit_creation_date              2020-11-30 
_audit_creation_method            'lammps2cif' 
_symmetry_space_group_name_H-M    'P1' 
_symmetry_Int_Tables_number       1 
_symmetry_cell_setting            triclinic 
loop_ 
_symmetry_equiv_pos_as_xyz 
  x,y,z 
_cell_length_a                    27.398574378133873 
_cell_length_b                    27.35819273067282 
_cell_length_c                    27.336429059076757 
_cell_angle_alpha                 87.56683990101898 
_cell_angle_beta                  92.34616723817183 
_cell_angle_gamma                 90.94015041537403 
loop_ 
_atom_site_label 
_atom_site_type_symbol 
_atom_site_fract_x 
_atom_site_fract_y 
_atom_site_fract_z 
_atom_site_charge 
O1          O  0.11616849  0.30975018  0.34344945    -0.81680
O2          O  0.97445243  0.06948621  0.38732771    -0.83230
O3          O  0.11842163  0.13260267  0.38908045    -0.80250
O4          O  0.01588743  0.18804356  0.27217130    -0.78640
O5          O  0.95357924  0.24289047  0.26810835    -0.80430
O6          O  0.13028921  0.13064694  0.47243850    -0.81360
O7          O  0.04096898  0.09486523  0.34484747    -0.82680
O8          O  0.11486679  0.23517128  0.30887856    -0.82970
Eu9        Eu  0.05523642  0.18596952  0.35257548     2.39200
O10         O  0.96869169  0.18011443  0.35510394    -0.90480
O11         O  0.09793027  0.22536708  0.41825423    -0.94090
C12         C  0.12569329  0.28105120  0.30931862     1.00600
C13         C  0.01060030  0.06073621  0.35962374     1.00420
C14         C  0.13990203  0.11721450  0.42947830     1.00370
C15         C  0.97816298  0.20817116  0.25111295     0.98220
H16         H  0.03020331  0.15546800  0.41224278     0.27970
O17         O  0.01830398  0.18511778  0.42400348    -1.02870
H18         H  0.03574937  0.28589238  0.31410891     0.28010
O19         O  0.03142485  0.26936884  0.34556746    -1.05410
O20         O  0.86509529  0.14923766  0.47058279    -0.82640
O21         O  0.99805420  0.32432583  0.46246919    -0.82180
O22         O  0.04758907  0.10524749  0.46947544    -0.80610
O23         O  0.88571910  0.19737931  0.32407452    -0.83950
O24         O  0.96942369  0.35895786  0.33150466    -0.81810
O25         O  0.15192697  0.22328525  0.49903810    -0.80460
O26         O  0.98092835  0.21067309  0.56904516    -0.81980
O27         O  0.89134957  0.31594302  0.47360624    -0.83900
O28         O  0.06014260  0.21932117  0.57812484    -0.80640
O29         O  0.88842316  0.31732324  0.38971782    -0.83320
O30         O  0.97726972  0.07952623  0.49471940    -0.79050
O31         O  0.15561304  0.29672598  0.45735133    -0.79080
O32         O  0.03968299  0.38265569  0.37331121    -0.78730
O33         O  0.86889660  0.15711391  0.39473541    -0.82230
O34         O  0.87220670  0.21974315  0.51148018    -0.81650
O35         O  0.95686148  0.33928251  0.52506734    -0.79980
Eu36       Eu  0.94612232  0.14202685  0.43311512     2.39770
Eu37       Eu  0.06929791  0.30618680  0.41655096     2.39570
Eu38       Eu  0.06978773  0.18868225  0.49336411     2.38400
Eu39       Eu  0.94591732  0.26549852  0.35210665     2.39880
Eu40       Eu  0.95318455  0.25667368  0.49691358     2.39790
O41         O  0.99376569  0.26697009  0.42231096    -0.94390
O42         O  0.98288188  0.17535708  0.50633931    -0.93290
C43         C  0.84646189  0.18422253  0.49388145     1.00780
C44         C  0.98749714  0.35408535  0.49451296     0.99490
C45         C  0.02394974  0.07840878  0.49789902     0.98880
C46         C  0.86470560  0.16154824  0.34875263     1.00900
C47         C  0.00292839  0.39263753  0.34318097     0.99820
C48         C  0.17644998  0.26038600  0.48251531     0.98660
C49         C  0.01714822  0.23078789  0.59052429     0.98720
C50         C  0.87469853  0.33108120  0.43147509     1.01340
H51         H  0.05884765  0.28737052  0.52050650     0.28710
O52         O  0.04316749  0.27087425  0.49350991    -1.06550
H53         H  0.88385628  0.23172611  0.42436020     0.30760
O54         O  0.91834792  0.22538805  0.42520729    -1.09120
O55         O  0.21676430  0.37979470  0.13648750    -0.81680
O56         O  0.18064077  0.32852346  0.85991718    -0.83230
O57         O  0.14355474  0.43887024  0.99649814    -0.80250
O58         O  0.12412338  0.28396700  0.01902282    -0.78640
O59         O  0.17364680  0.21670400  0.02038401    -0.80430
O60         O  0.20735601  0.48612845  0.97400574    -0.81360
O61         O  0.15693850  0.30860810  0.93331987    -0.82680
O62         O  0.14885972  0.36061103  0.08937890    -0.82970
Eu63       Eu  0.17538793  0.35612719  0.00583773     2.39200
O64         O  0.21214257  0.29434430  0.96514281    -0.90480
O65         O  0.23640868  0.40267645  0.04747281    -0.94090
C66         C  0.17113939  0.36984063  0.13039502     1.00600
C67         C  0.14741473  0.32739756  0.89096739     1.00420
C68         C  0.17137229  0.47693565  0.00121254     1.00370
C69         C  0.13113308  0.23728715  0.01983762     0.98220
H70         H  0.20305089  0.41421191  0.92069033     0.27970
O71         O  0.22219581  0.39380139  0.94321343    -1.02870
H72         H  0.20174599  0.29428446  0.07575967     0.28010
O73         O  0.22638995  0.30749550  0.05493565    -1.05410
O74         O  0.33136837  0.37873114  0.90262659    -0.82640
O75         O  0.36288457  0.31033552  0.13284775    -0.82180
O76         O  0.27756213  0.45966810  0.88472660    -0.80610
O77         O  0.23928824  0.19056738  0.95072634    -0.83950
O78         O  0.23914465  0.22010069  0.09967988    -0.81810
O79         O  0.27653259  0.47383196  0.08266454    -0.80460
O80         O  0.41593470  0.40503090  0.98073132    -0.81980
O81         O  0.39802240  0.24826188  0.99663777    -0.83900
O82         O  0.36807289  0.47216491  0.98578232    -0.80640
O83         O  0.34094340  0.20138308  0.03498190    -0.83320
O84         O  0.26136317  0.39137861  0.84017824    -0.79050
O85         O  0.31778795  0.42018523  0.13388848    -0.79080
O86         O  0.25042391  0.28465349  0.14960294    -0.78730
O87         O  0.21169943  0.24513611  0.89240241    -0.82230
O88         O  0.40596924  0.36928211  0.92823331    -0.81650
O89         O  0.41501745  0.33305531  0.07468866    -0.79980
Eu90       Eu  0.25824687  0.32725038  0.90363424     2.39770
Eu91       Eu  0.28690956  0.34928973  0.09800567     2.39570
Eu92       Eu  0.28225017  0.44205067  0.98651415     2.38400
Eu93       Eu  0.26165073  0.24320567  0.01583649     2.39880
Eu94       Eu  0.36713113  0.33114484  0.99736601     2.39790
O95         O  0.32409626  0.28745244  0.05748726    -0.94390
O96         O  0.28534788  0.35567363  0.98080184    -0.93290
C97         C  0.37294816  0.36207516  0.89624666     1.00780
C98         C  0.40506077  0.30799121  0.11365583     0.99490
C99         C  0.26871060  0.43769290  0.84168518     0.98880
C100        C  0.20724959  0.20388014  0.91773482     1.00900
C101        C  0.23475176  0.24105964  0.14087606     0.99820
C102        C  0.29375761  0.45931813  0.12806606     0.98660
C103        C  0.40977202  0.45062157  0.98734250     0.98720
C104        C  0.38608142  0.21298482  0.02631501     1.01340
H105        H  0.35933178  0.41171661  0.05758746     0.28710
O106        O  0.33441665  0.39338580  0.04031540    -1.06550
H107        H  0.32710707  0.25097851  0.93297597     0.30760
O108        O  0.31306612  0.27659299  0.95083228    -1.09120
O109        O  0.86264436  0.04263107  0.12570484    -0.81680
O110        O  0.78074161  0.20816168  0.90908253    -0.83230
O111        O  0.92052288  0.14551041  0.01162645    -0.80250
O112        O  0.80503865  0.18710000  0.08125837    -0.78640
O113        O  0.72288025  0.17178321  0.07839735    -0.80430
O114        O  0.94567937  0.09002940  0.95894530    -0.81360
O115        O  0.81975571  0.21418560  0.98387803    -0.82680
O116        O  0.89671743  0.10327914  0.07930985    -0.82970
Eu117      Eu  0.83501068  0.13379167  0.02269967     2.39200
O118        O  0.75843890  0.14512551  0.99046418    -0.90480
O119        O  0.81081795  0.05829127  0.99317301    -0.94090
C120        C  0.89126040  0.07998704  0.11979080     1.00600
C121        C  0.79995950  0.23283068  0.94404104     1.00420
C122        C  0.95334805  0.12620639  0.98724548     1.00370
C123        C  0.76123639  0.19774054  0.09042268     0.98220
H124        H  0.86947968  0.14540765  0.92357873     0.27970
O125        O  0.84859770  0.12145698  0.93966711    -1.02870
H126        H  0.78748561  0.09409828  0.10940780     0.28010
O127        O  0.78575995  0.08482215  0.07566331    -1.05410
O128        O  0.72502195  0.08287113  0.83885483    -0.82640
O129        O  0.79309312  0.91426851  0.04699347    -0.82180
O130        O  0.86651072  0.06579824  0.85014342    -0.80610
O131        O  0.64125712  0.14679485  0.00530282    -0.83950
O132        O  0.69732131  0.05356737  0.12373271    -0.81810
O133        O  0.94158111  0.00458827  0.98487813    -0.80460
O134        O  0.78549818  0.94965708  0.88500753    -0.81980
O135        O  0.65154997  0.98322797  0.95728045    -0.83900
O136        O  0.86732443  0.95847957  0.89862420    -0.80640
O137        O  0.63696174  0.04137009  0.01282734    -0.83320
O138        O  0.81012640  0.12542220  0.83266672    -0.79050
O139        O  0.88269854  0.03072233  0.02409476    -0.79080
O140        O  0.75523140  0.99441925  0.13109138    -0.78730
O141        O  0.70892244  0.14172086  0.96952851    -0.82230
O142        O  0.69973151  0.00765100  0.86702917    -0.81650
O143        O  0.72822158  0.91714806  0.99552530    -0.79980
Eu144      Eu  0.76639330  0.12242900  0.90825531     2.39770
Eu145      Eu  0.80955850  0.00419396  0.06305893     2.39570
Eu146      Eu  0.87183585  0.03934729  0.93597044     2.38400
Eu147      Eu  0.70642722  0.09174412  0.03900025     2.39880
Eu148      Eu  0.73948733  0.99143847  0.94647073     2.39790
O149        O  0.73016227  0.00948179  0.03078868    -0.94390
O150        O  0.79338093  0.04264741  0.90153607    -0.93290
C151        C  0.71172945  0.03815244  0.83241418     1.00780
C152        C  0.76616566  0.89539899  0.01258040     0.99490
C153        C  0.84279620  0.09557828  0.82050059     0.98880
C154        C  0.66555132  0.15689394  0.96758192     1.00900
C155        C  0.71922364  0.01747666  0.14745396     0.99820
C156        C  0.92120898  0.00654101  0.02519009     0.98660
C157        C  0.82892168  0.93209628  0.88835009     0.98720
C158        C  0.62355568  0.00669578  0.98450473     1.01340
H159        H  0.83340469  0.95111696  0.97849067     0.28710
O160        O  0.82082768  0.98305272  0.98156156    -1.06550
H161        H  0.68129171  0.06932028  0.93554619     0.30760
O162        O  0.71260884  0.07051167  0.95286871    -1.09120
O163        O  0.31145854  0.11520213  0.30529050    -0.81680
O164        O  0.36254707  0.84140231  0.25191198    -0.83230
O165        O  0.25774618  0.97002395  0.18434334    -0.80250
O166        O  0.28354112  0.96539459  0.36204080    -0.78640
O167        O  0.35839611  0.96804298  0.40315417    -0.80430
O168        O  0.30779055  0.00236245  0.12533220    -0.81360
O169        O  0.32658449  0.89209254  0.29742270    -0.82680
O170        O  0.26646554  0.05577760  0.27055851    -0.82970
Eu171      Eu  0.30412546  0.97517427  0.27095147     2.39200
O172        O  0.37569432  0.93593129  0.30369314    -0.90480
O173        O  0.34231833  0.04042012  0.23010584    -0.94090
C174        C  0.27380684  0.08651508  0.30413950     1.00600
C175        C  0.32319491  0.85912964  0.26638515     1.00420
C176        C  0.26764183  0.98287393  0.13847650     1.00370
C177        C  0.31130010  0.96416906  0.40249004     0.98220
H178        H  0.33490773  0.92736638  0.19081692     0.27970
O179        O  0.35501631  0.94858941  0.21047553    -1.02870
H180        H  0.33636588  0.03488886  0.33865573     0.28010
O181        O  0.35800639  0.02601349  0.31412472    -1.05410
O182        O  0.50146650  0.87316123  0.22676804    -0.82640
O183        O  0.44851000  0.15971064  0.26547650    -0.82180
O184        O  0.37911898  0.94495087  0.11528651    -0.80610
O185        O  0.44989258  0.90936078  0.38516567    -0.83950
O186        O  0.39209148  0.05118612  0.39273217    -0.81810
O187        O  0.32796714  0.08437477  0.15045225    -0.80460
O188        O  0.51737421  0.02374280  0.14713796    -0.81980
O189        O  0.56634788  0.03230058  0.30319290    -0.83900
O190        O  0.44493367  0.03810032  0.10465845    -0.80640
O191        O  0.50460180  0.03330345  0.35207185    -0.83320
O192        O  0.40397267  0.88005736  0.16441183    -0.79050
O193        O  0.36742900  0.13569642  0.19883728    -0.79080
O194        O  0.41733512  0.12059960  0.35601284    -0.78730
O195        O  0.44423907  0.86048834  0.31970183    -0.82230
O196        O  0.55442447  0.93905672  0.22753145    -0.81650
O197        O  0.51774286  0.12489345  0.23882200    -0.79980
Eu198      Eu  0.42413419  0.90626861  0.24409963     2.39770
Eu199      Eu  0.39062495  0.09561951  0.27399926     2.39570
Eu200      Eu  0.38458448  0.01633587  0.16377729     2.38400
Eu201      Eu  0.42618663  0.98687886  0.34968186     2.39880
Eu202      Eu  0.50685846  0.02568244  0.23590562     2.39790
O203        O  0.45908728  0.05140177  0.30169655    -0.94390
O204        O  0.45309888  0.97171907  0.19338171    -0.93290
C205        C  0.54480619  0.89085531  0.22520207     1.00780
C206        C  0.49224952  0.16352692  0.25148049     0.99490
C207        C  0.38714659  0.89939342  0.12400326     0.98880
C208        C  0.44846595  0.86756363  0.36584076     1.00900
C209        C  0.41176101  0.09293588  0.39433572     0.99820
C210        C  0.32836061  0.12131114  0.17757536     0.98660
C211        C  0.49031193  0.02724399  0.10733184     0.98720
C212        C  0.54635662  0.01669480  0.34237633     1.01340
H213        H  0.44624733  0.09746435  0.18479029     0.28710
O214        O  0.43681616  0.07062123  0.20668315    -1.06550
H215        H  0.49977923  0.93920447  0.30114582     0.30760
O216        O  0.47425361  0.95961247  0.28714407    -1.09120
O217        O  0.36298796  0.61826880  0.81247046    -0.81680
O218        O  0.49700829  0.79240435  0.98360537    -0.83230
O219        O  0.44966273  0.62882213  0.97723469    -0.80250
O220        O  0.34500614  0.72875696  0.92219407    -0.78640
O221        O  0.33306305  0.78443374  0.85824934    -0.80430
O222        O  0.53268702  0.62233164  0.97084800    -0.81360
O223        O  0.42866515  0.74247970  0.98068262    -0.82680
O224        O  0.34968721  0.64157702  0.88964065    -0.82970
Eu225      Eu  0.42541769  0.68948433  0.91462324     2.39200
O226        O  0.44797193  0.77007836  0.89093104    -0.90480
O227        O  0.47435869  0.63493748  0.87403758    -0.94090
C228        C  0.33384752  0.62374759  0.84857726     1.00600
C229        C  0.45517919  0.77705322  0.99758336     1.00420
C230        C  0.49237251  0.61755849  0.99482184     1.00370
C231        C  0.31801682  0.76052874  0.89779526     0.98220
H232        H  0.51959058  0.70631004  0.96622600     0.27970
O233        O  0.51131633  0.70811618  0.93157313    -1.02870
H234        H  0.36823626  0.70255276  0.82756901     0.28010
O235        O  0.40290677  0.70482826  0.83336873    -1.05410
O236        O  0.57546167  0.86142385  0.87389941    -0.82640
O237        O  0.49905229  0.63626771  0.71860373    -0.82180
O238        O  0.63779600  0.68762112  0.92830822    -0.80610
O239        O  0.42058924  0.85756671  0.86441086    -0.83950
O240        O  0.35443893  0.75183693  0.75060658    -0.81810
O241        O  0.55051346  0.56905326  0.85651545    -0.80460
O242        O  0.63045574  0.72048110  0.79105516    -0.81980
O243        O  0.51903874  0.82061659  0.71792726    -0.83900
O244        O  0.62656937  0.64562988  0.82953277    -0.80640
O245        O  0.44145608  0.84239056  0.73682497    -0.83320
O246        O  0.62241107  0.76805487  0.93961402    -0.79050
O247        O  0.48366387  0.56689922  0.80314957    -0.79080
O248        O  0.42015725  0.71411298  0.73527570    -0.78730
O249        O  0.49851847  0.87063603  0.89457511    -0.82230
O250        O  0.58134302  0.84679216  0.79292976    -0.81650
O251        O  0.53369003  0.71119942  0.70311098    -0.79980
Eu252      Eu  0.53367583  0.78846333  0.90621376     2.39770
Eu253      Eu  0.44987911  0.65015140  0.79122543     2.39570
Eu254      Eu  0.55977281  0.65504510  0.88766574     2.38400
Eu255      Eu  0.41425092  0.78798917  0.81090407     2.39880
Eu256      Eu  0.54890755  0.75784865  0.77826372     2.39790
O257        O  0.46561795  0.73457531  0.76967613    -0.94390
O258        O  0.57829205  0.73790872  0.85941177    -0.93290
C259        C  0.58333840  0.87641647  0.82969515     1.00780
C260        C  0.53089959  0.66455953  0.69748580     0.99490
C261        C  0.65227686  0.73065826  0.94204666     0.98880
C262        C  0.45736221  0.88539944  0.87532887     1.00900
C263        C  0.37427351  0.71565192  0.73165557     0.99820
C264        C  0.52011181  0.54619935  0.82702443     0.98660
C265        C  0.63822272  0.67405501  0.79248545     0.98720
C266        C  0.48050308  0.84695174  0.71053041     1.01340
H267        H  0.54825042  0.65380291  0.78906035     0.28710
O268        O  0.53051784  0.67574431  0.80785102    -1.06550
H269        H  0.50160644  0.83514967  0.81444287     0.30760
O270        O  0.49918366  0.80158379  0.82565878    -1.09120
O271        O  0.75025416  0.45534004  0.29354880    -0.81680
O272        O  0.69024192  0.57166356  0.10375196    -0.83230
O273        O  0.76547914  0.41849313  0.18431347    -0.80250
O274        O  0.79878143  0.55795688  0.27081932    -0.78640
O275        O  0.76418720  0.62955777  0.27044700    -0.80430
O276        O  0.69057121  0.38163999  0.17530762    -0.81360
O277        O  0.75546238  0.52512227  0.12984724    -0.82680
O278        O  0.82158612  0.45740711  0.26331441    -0.82970
Eu279      Eu  0.75240584  0.49926331  0.22201438     2.39200
O280        O  0.70910202  0.57464871  0.22382900    -0.90480
O281        O  0.70330695  0.43897352  0.26521126    -0.94090
C282        C  0.79504426  0.44465069  0.29877811     1.00600
C283        C  0.73004747  0.54913208  0.09516158     1.00420
C284        C  0.73645760  0.38381434  0.16937528     1.00370
C285        C  0.79527202  0.60088058  0.25324001     0.98220
H286        H  0.68210352  0.48137604  0.14612191     0.27970
O287        O  0.67812335  0.49197303  0.17889492    -1.02870
H288        H  0.75703115  0.52661608  0.33135835     0.28010
O289        O  0.73070791  0.52158433  0.30714997    -1.05410
O290        O  0.55972111  0.55248182  0.20867808    -0.82640
O291        O  0.60726832  0.46608082  0.40238532    -0.82180
O292        O  0.58770331  0.45053914  0.13830707    -0.80610
O293        O  0.66093927  0.67711841  0.26820120    -0.83950
O294        O  0.73135667  0.58045589  0.39427871    -0.81810
O295        O  0.62604904  0.35684766  0.28266190    -0.80460
O296        O  0.52446661  0.41665172  0.26859739    -0.81980
O297        O  0.56502441  0.56103554  0.36270313    -0.83900
O298        O  0.55650486  0.39213100  0.19982891    -0.80640
O299        O  0.61275976  0.62262224  0.33669839    -0.83320
O300        O  0.59666497  0.52974878  0.10822775    -0.79050
O301        O  0.68505733  0.37491003  0.33848988    -0.79080
O302        O  0.72802639  0.49859952  0.41606104    -0.78730
O303        O  0.63297152  0.66413582  0.18962718    -0.82230
O304        O  0.48840699  0.54639645  0.23325122    -0.81650
O305        O  0.53789954  0.45975433  0.35482443    -0.79980
Eu306      Eu  0.63766204  0.56939907  0.17655205     2.39770
Eu307      Eu  0.68129673  0.46126555  0.34598946     2.39570
Eu308      Eu  0.63343926  0.42692991  0.21659709     2.38400
Eu309      Eu  0.68805478  0.59522203  0.30562095     2.39880
Eu310      Eu  0.55816471  0.50997906  0.28592003     2.39790
O311        O  0.63479238  0.52899212  0.32836218    -0.94390
O312        O  0.59092632  0.50027300  0.20843993    -0.93290
C313        C  0.51559143  0.56178014  0.19918668     1.00780
C314        C  0.55953292  0.46395994  0.39645956     0.99490
C315        C  0.57861962  0.48613993  0.10652041     0.98880
C316        C  0.64079938  0.69311759  0.22659606     1.00900
C317        C  0.74147719  0.54310494  0.42562192     0.99820
C318        C  0.64622743  0.35199499  0.32671546     0.98660
C319        C  0.53146367  0.38214787  0.23665873     0.98720
C320        C  0.59305051  0.59862352  0.37141458     1.01340
H321        H  0.59402486  0.42150573  0.31421921     0.28710
O322        O  0.61126577  0.44599815  0.29592650    -1.06550
H323        H  0.59390006  0.60963986  0.25670648     0.30760
O324        O  0.61249831  0.57976152  0.25784696    -1.09120
O325        O  0.02008719  0.64229325  0.27393125    -0.81680
O326        O  0.04673011  0.69982317  0.00819025    -0.83230
O327        O  0.92288805  0.62365787  0.11174868    -0.80250
O328        O  0.07436627  0.60681212  0.13483755    -0.78640
O329        O  0.13738051  0.65975649  0.12273687    -0.80430
O330        O  0.87363598  0.68900526  0.11802696    -0.81360
O331        O  0.04583197  0.63834228  0.06586483    -0.82680
O332        O  0.99118374  0.60015741  0.20827987    -0.82970
Eu333      Eu  0.00240690  0.65619783  0.13608324     2.39200
O334        O  0.02028379  0.73882316  0.11603364    -0.90480
O335        O  0.96182761  0.70041551  0.19082371    -0.94090
C336        C  0.00448619  0.60119694  0.25403356     1.00600
C337        C  0.06134606  0.65842541  0.02659942     1.00420
C338        C  0.88066642  0.64389636  0.11005122     1.00370
C339        C  0.11945063  0.61628055  0.12738504     0.98220
H340        H  0.93797570  0.69117956  0.05659761     0.27970
O341        O  0.95807603  0.70861002  0.07997516    -1.02870
H342        H  0.08578655  0.66515396  0.20392593     0.28010
O343        O  0.06461924  0.68871261  0.18690258    -1.05410
O344        O  0.98455769  0.85547871  0.02292567    -0.82640
O345        O  0.02338743  0.82105154  0.28600740    -0.82180
O346        O  0.86102624  0.76340774  0.07026386    -0.80610
O347        O  0.13903643  0.74500126  0.04687086    -0.83950
O348        O  0.15843270  0.75780535  0.19719013    -0.81810
O349        O  0.88465251  0.74077392  0.21321522    -0.80460
O350        O  0.96553573  0.88465556  0.18497496    -0.81980
O351        O  0.11265362  0.87216981  0.15898407    -0.83900
O352        O  0.89869432  0.84437496  0.15482846    -0.80640
O353        O  0.15505014  0.81374562  0.12387452    -0.83320
O354        O  0.90546605  0.75460995  0.00259805    -0.79050
O355        O  0.93907848  0.72761078  0.27796479    -0.79080
O356        O  0.11026818  0.75396804  0.26358535    -0.78730
O357        O  0.08350862  0.77277611  0.98848348    -0.82230
O358        O  0.03171845  0.90037327  0.07389391    -0.81650
O359        O  0.03662732  0.88109254  0.22645182    -0.79980
Eu360      Eu  0.00002083  0.76763321  0.03397727     2.39770
Eu361      Eu  0.02259151  0.73580266  0.24355455     2.39570
Eu362      Eu  0.92155037  0.75948027  0.13762234     2.38400
Eu363      Eu  0.10478708  0.74157883  0.12887247     2.39880
Eu364      Eu  0.02858046  0.84556367  0.14689797     2.39790
O365        O  0.07229854  0.78506222  0.19043860    -0.94390
O366        O  0.96554469  0.81799766  0.09098780    -0.93290
C367        C  0.01692014  0.88890794  0.03052910     1.00780
C368        C  0.03056007  0.86735823  0.27143081     0.99490
C369        C  0.86266072  0.75552340  0.02432812     0.98880
C370        C  0.12876191  0.76163061  0.00290002     1.00900
C371        C  0.15190611  0.76165848  0.24279371     0.99820
C372        C  0.89504822  0.72980376  0.25829811     0.98660
C373        C  0.92127021  0.88343226  0.17028346     0.98720
C374        C  0.15257215  0.85288510  0.14730147     1.01340
H375        H  0.96004876  0.80682106  0.21698637     0.28710
O376        O  0.97855771  0.79139805  0.19288332    -1.06550
H377        H  0.08504551  0.82392256  0.06426643     0.30760
O378        O  0.06338067  0.80306664  0.08302720    -1.09120
O379        O  0.11603995  0.53509374  0.43716842    -0.81680
O380        O  0.35801338  0.52532587  0.55030452    -0.83230
O381        O  0.25812535  0.49577469  0.38291471    -0.80250
O382        O  0.24874215  0.49068593  0.58175065    -0.78640
O383        O  0.20346002  0.53957319  0.62689003    -0.80430
O384        O  0.29122333  0.55964957  0.33720524    -0.81360
O385        O  0.31009504  0.46644509  0.51644709    -0.82680
O386        O  0.17059323  0.47527385  0.46024610    -0.82970
Eu387      Eu  0.24569839  0.51513414  0.48116033     2.39200
O388        O  0.25681740  0.59620699  0.50521412    -0.90480
O389        O  0.21996149  0.56861693  0.41707510    -0.94090
C390        C  0.12741444  0.49104177  0.45012452     1.00600
C391        C  0.34338748  0.48112686  0.54666693     1.00420
C392        C  0.27347893  0.51613834  0.34005038     1.00370
C393        C  0.23176535  0.50306523  0.62509326     0.98220
H394        H  0.33924931  0.53197207  0.45191238     0.27970
O395        O  0.31701719  0.55721917  0.45972567    -1.02870
H396        H  0.15460058  0.53559421  0.52765004     0.28010
O397        O  0.17923273  0.55707555  0.51396331    -1.05410
O398        O  0.38565655  0.67981474  0.54825492    -0.82640
O399        O  0.10879582  0.69028441  0.44556016    -0.82180
O400        O  0.37716295  0.58693412  0.40095927    -0.80610
O401        O  0.28895451  0.58372235  0.58812726    -0.83950
O402        O  0.13259435  0.64363440  0.54041709    -0.81810
O403        O  0.21599566  0.60287657  0.34962073    -0.80460
O404        O  0.27179958  0.75286161  0.41704060    -0.81980
O405        O  0.23676246  0.74506948  0.57763956    -0.83900
O406        O  0.30736357  0.70099087  0.36721897    -0.80640
O407        O  0.20456619  0.68061022  0.62201938    -0.83320
O408        O  0.41088757  0.61195594  0.47219252    -0.79050
O409        O  0.14225208  0.62870783  0.36006757    -0.79080
O410        O  0.08096247  0.60554318  0.49349112    -0.78730
O411        O  0.36379984  0.57932031  0.60573030    -0.82230
O412        O  0.33839413  0.74523972  0.52331117    -0.81650
O413        O  0.15942179  0.74825497  0.48021043    -0.79980
Eu414      Eu  0.34133954  0.60869454  0.52336469     2.39770
Eu415      Eu  0.15443807  0.61423614  0.44742706     2.39570
Eu416      Eu  0.29081259  0.61780432  0.39899046     2.38400
Eu417      Eu  0.20940990  0.61075631  0.57334940     2.39880
Eu418      Eu  0.25104935  0.71486145  0.49648208     2.39790
O419        O  0.18112806  0.66548695  0.51276333    -0.94390
O420        O  0.31707943  0.66813729  0.46448562    -0.93290
C421        C  0.37945273  0.72564338  0.54081802     1.00780
C422        C  0.11586185  0.73302298  0.46253838     0.99490
C423        C  0.41250003  0.58713011  0.43400167     0.98880
C424        C  0.32137099  0.58015282  0.62172463     1.00900
C425        C  0.09572612  0.61551801  0.53645946     0.99820
C426        C  0.18338378  0.63477830  0.34061607     0.98660
C427        C  0.30830915  0.73946633  0.39287083     0.98720
C428        C  0.21997090  0.72480149  0.61711957     1.01340
H429        H  0.21837504  0.68416929  0.41274657     0.28710
O430        O  0.22785882  0.66003254  0.43623781    -1.06550
H431        H  0.29487720  0.67446329  0.58808114     0.30760
O432        O  0.28113977  0.65828052  0.55979713    -1.09120
O433        O  0.97065816  0.46194693  0.64514117    -0.81680
O434        O  0.88569205  0.44668877  0.91062044    -0.83230
O435        O  0.97700811  0.37454749  0.77366184    -0.80250
O436        O  0.83846689  0.42352344  0.74447559    -0.78640
O437        O  0.79271074  0.49235684  0.73882810    -0.80430
O438        O  0.05122925  0.40783440  0.79142154    -0.81360
O439        O  0.87503299  0.40497057  0.84080929    -0.82680
O440        O  0.94338412  0.40559434  0.70167216    -0.82970
Eu441      Eu  0.91869521  0.44226920  0.77373972     2.39200
O442        O  0.87368035  0.49148185  0.82108952    -0.90480
O443        O  0.96116031  0.51653599  0.76621075    -0.94090
C444        C  0.96241341  0.41709712  0.66105204     1.00600
C445        C  0.86687165  0.41214798  0.88581662     1.00420
C446        C  0.02354314  0.37081963  0.78052015     1.00370
C447        C  0.80000332  0.44695540  0.73105707     0.98220
H448        H  0.98062057  0.42483492  0.85671079     0.27970
O449        O  0.97360115  0.45494782  0.83834648    -1.02870
H450        H  0.87337973  0.48853869  0.68911840     0.28010
O451        O  0.89213701  0.50302004  0.71552206    -1.05410
O452        O  0.93626530  0.59601680  0.92069182    -0.82640
O453        O  0.98645997  0.63425279  0.66079298    -0.82180
O454        O  0.03383599  0.51660583  0.88823810    -0.80610
O455        O  0.80301134  0.55429278  0.85063341    -0.83950
O456        O  0.82264909  0.56407661  0.67093928    -0.81810
O457        O  0.09383942  0.48199538  0.73730489    -0.80460
O458        O  0.08003236  0.62525317  0.81162387    -0.81980
O459        O  0.91698041  0.67955725  0.79343972    -0.83900
O460        O  0.11134530  0.54852306  0.81449572    -0.80640
O461        O  0.84204772  0.64365573  0.77534634    -0.83320
O462        O  0.98928786  0.47947754  0.94251160    -0.79050
O463        O  0.02159360  0.48311737  0.70491265    -0.79080
O464        O  0.88946568  0.55615846  0.62428354    -0.78730
O465        O  0.85752050  0.53868421  0.91526336    -0.82230
O466        O  0.96694793  0.65514275  0.87293006    -0.81650
O467        O  0.99932883  0.67348504  0.73270352    -0.79980
Eu468      Eu  0.93229747  0.51643339  0.88262977     2.39770
Eu469      Eu  0.96069727  0.54413471  0.68352433     2.39570
Eu470      Eu  0.03951779  0.49777882  0.80206110     2.38400
Eu471      Eu  0.84970954  0.55656931  0.76571493     2.39880
Eu472      Eu  0.98347341  0.61835968  0.79672513     2.39790
O473        O  0.92171988  0.59737277  0.73416721    -0.94390
O474        O  0.00638210  0.55391183  0.85264704    -0.93290
C475        C  0.97113990  0.62545755  0.90977818     1.00780
C476        C  0.99605109  0.67328800  0.68635227     0.99490
C477        C  0.02924811  0.48257289  0.92077250     0.98880
C478        C  0.81438008  0.54777433  0.89835974     1.00900
C479        C  0.84282567  0.56126703  0.62780129     0.99820
C480        C  0.06673476  0.48788811  0.69920365     0.98660
C481        C  0.11734671  0.59495556  0.81563685     0.98720
C482        C  0.86988460  0.68057048  0.78591462     1.01340
H483        H  0.04960501  0.58180916  0.73115692     0.28710
O484        O  0.02150960  0.56515025  0.74415603    -1.06550
H485        H  0.89502870  0.60122280  0.84241531     0.30760
O486        O  0.91186146  0.57782926  0.82416538    -1.09120
O487        O  0.83432537  0.93759375  0.39308732    -0.81680
O488        O  0.71702892  0.91476279  0.64703495    -0.83230
O489        O  0.78459822  0.02110558  0.52201304    -0.80250
O490        O  0.87300947  0.90801563  0.57343839    -0.78640
O491        O  0.88086924  0.82421773  0.57998191    -0.80430
O492        O  0.72328848  0.00628850  0.46898701    -0.81360
O493        O  0.78007669  0.96277912  0.61958426    -0.82680
O494        O  0.82326582  0.98366293  0.45894026    -0.82970
Eu495      Eu  0.79740451  0.93548157  0.53594012     2.39200
O496        O  0.77371914  0.86054917  0.57300377    -0.90480
O497        O  0.75765816  0.92667957  0.46204630    -0.94090
C498        C  0.83238467  0.97917713  0.41296157     1.00600
C499        C  0.74900483  0.94899129  0.65207226     1.00420
C500        C  0.74143385  0.02980824  0.50509408     1.00370
C501        C  0.89619256  0.86873566  0.58610736     0.98220
H502        H  0.69974682  0.95904720  0.56471127     0.27970
O503        O  0.71145179  0.93202281  0.54726908    -1.02870
H504        H  0.86194607  0.87057641  0.49655553     0.28010
O505        O  0.82738591  0.86545425  0.49967974    -1.05410
O506        O  0.60862929  0.81000904  0.58523829    -0.82640
O507        O  0.77084108  0.79872527  0.36679504    -0.82180
O508        O  0.59845593  0.94332524  0.52347361    -0.80610
O509        O  0.79955686  0.78095707  0.63065629    -0.83950
O510        O  0.88313604  0.77442798  0.50008137    -0.81810
O511        O  0.68293391  0.95435644  0.38051015    -0.80460
O512        O  0.61176738  0.79412505  0.41584947    -0.81980
O513        O  0.68774718  0.71971967  0.53203294    -0.83900
O514        O  0.63229499  0.85267968  0.46199567    -0.80640
O515        O  0.76267791  0.70505414  0.51167305    -0.83320
O516        O  0.61802803  0.90160695  0.59602810    -0.79050
O517        O  0.74999600  0.91362735  0.35489856    -0.79080
O518        O  0.88144099  0.82415567  0.43061051    -0.78730
O519        O  0.73077228  0.81495079  0.65986682    -0.82230
O520        O  0.60503835  0.77148215  0.51297004    -0.81650
O521        O  0.72128552  0.74436610  0.40764060    -0.79980
Eu522      Eu  0.69060433  0.85662588  0.58854971     2.39770
Eu523      Eu  0.79282170  0.86268213  0.42108471     2.39570
Eu524      Eu  0.67258298  0.93060390  0.46887112     2.38400
Eu525      Eu  0.80517363  0.78877961  0.54115999     2.39880
Eu526      Eu  0.68292242  0.78705656  0.47445640     2.39790
O527        O  0.76864133  0.78911972  0.46283112    -0.94390
O528        O  0.65615569  0.85716559  0.51099523    -0.93290
C529        C  0.58499982  0.78550058  0.55157155     1.00780
C530        C  0.75025347  0.75665300  0.37328400     0.99490
C531        C  0.58875264  0.92712795  0.56821099     0.98880
C532        C  0.77264239  0.79413841  0.66547258     1.00900
C533        C  0.90492343  0.79451968  0.46282107     0.99820
C534        C  0.71338078  0.94306476  0.34753081     0.98660
C535        C  0.60600903  0.83796997  0.42662125     0.98720
C536        C  0.71614268  0.69179370  0.51338317     1.01340
H537        H  0.69244167  0.85827467  0.39722287     0.28710
O538        O  0.70594113  0.86089658  0.43018797    -1.06550
H539        H  0.71713618  0.76587794  0.58534531     0.30760
O540        O  0.72075380  0.78686068  0.55616042    -1.09120
O541        O  0.22119672  0.08186511  0.62907028    -0.81680
O542        O  0.00017763  0.01202618  0.76253064    -0.83230
O543        O  0.06159205  0.01821619  0.63566514    -0.80250
O544        O  0.08826398  0.14805797  0.73036781    -0.78640
O545        O  0.13629146  0.15721875  0.80013929    -0.80430
O546        O  0.10825890  0.95496475  0.61693985    -0.81360
O547        O  0.01975336  0.07387638  0.70697420    -0.82680
O548        O  0.16581088  0.12244869  0.66397711    -0.82970
Eu549      Eu  0.10539091  0.06630995  0.69942879     2.39200
O550        O  0.09697522  0.05154051  0.78185338    -0.90480
O551        O  0.16688278  0.01828639  0.66691533    -0.94090
C552        C  0.18087155  0.10551066  0.62584210     1.00600
C553        C  0.98931914  0.04819577  0.73184401     1.00420
C554        C  0.06737202  0.97629828  0.61674390     1.00370
C555        C  0.10521704  0.17368976  0.76622281     0.98220
H556        H  0.05495932  0.96890248  0.70520294     0.27970
O557        O  0.08538352  0.98187739  0.71792762    -1.02870
H558        H  0.18827092  0.11526410  0.74019336     0.28010
O559        O  0.18059200  0.08078646  0.74150703    -1.05410
O560        O  0.11390465  0.89413570  0.82281809    -0.82640
O561        O  0.32322140  0.01207169  0.74298915    -0.82180
O562        O  0.09326491  0.87755581  0.69928422    -0.80610
O563        O  0.08204723  0.07576439  0.82522514    -0.83950
O564        O  0.23928774  0.13006069  0.82153426    -0.81810
O565        O  0.20243710  0.94335306  0.61711585    -0.80460
O566        O  0.23067513  0.86828266  0.79538102    -0.81980
O567        O  0.23389081  0.96818255  0.90536210    -0.83900
O568        O  0.18346766  0.86236682  0.72550183    -0.80640
O569        O  0.19922849  0.04185226  0.91214945    -0.83320
O570        O  0.04146899  0.88960548  0.76034818    -0.79050
O571        O  0.26543516  0.99631584  0.63159518    -0.79080
O572        O  0.27069070  0.10138024  0.75237294    -0.78730
O573        O  0.05332857  0.02033281  0.87453757    -0.82230
O574        O  0.17894483  0.88726788  0.87055558    -0.81650
O575        O  0.30229654  0.97516144  0.81598700    -0.79980
Eu576      Eu  0.07358181  0.97000862  0.80017872     2.39770
Eu577      Eu  0.24221721  0.03353963  0.70802331     2.39570
Eu578      Eu  0.15368423  0.93935801  0.69237613     2.38400
Eu579      Eu  0.16990306  0.07394075  0.82564891     2.39880
Eu580      Eu  0.21666554  0.95015979  0.81863524     2.39790
O581        O  0.23590094  0.02995626  0.79582831    -0.94390
O582        O  0.15148827  0.98068395  0.76603000    -0.93290
C583        C  0.13273474  0.88728320  0.86546887     1.00780
C584        C  0.33355984  0.99461465  0.78674035     0.99490
C585        C  0.05682833  0.86444549  0.72411372     0.98880
C586        C  0.06622930  0.06566448  0.86685938     1.00900
C587        C  0.27033060  0.13072715  0.78761287     0.99820
C588        C  0.24114411  0.96690275  0.60349225     0.98660
C589        C  0.21250730  0.84503290  0.75949439     0.98720
C590        C  0.21934455  0.00247533  0.93189580     1.01340
H591        H  0.25578402  0.92956163  0.72208155     0.28710
O592        O  0.22993272  0.94999660  0.73226889    -1.06550
H593        H  0.14075157  0.98446529  0.88141688     0.30760
O594        O  0.14707510  0.99050822  0.84727307    -1.09120
O595        O  0.42534106  0.22158966  0.52088568    -0.81680
O596        O  0.46729413  0.21870284  0.79487050    -0.83230
O597        O  0.40374916  0.14119855  0.63761565    -0.80250
O598        O  0.40354986  0.30165780  0.66860449    -0.78640
O599        O  0.46538027  0.35422498  0.64687256    -0.80430
O600        O  0.43356509  0.08218658  0.68503638    -0.81360
O601        O  0.40686157  0.22875802  0.73550375    -0.82680
O602        O  0.37827922  0.23722737  0.58557979    -0.82970
Eu603      Eu  0.43359895  0.22262442  0.65398812     2.39200
O604        O  0.49704176  0.26353033  0.69157150    -0.90480
O605        O  0.46683683  0.16263905  0.60757230    -0.94090
C606        C  0.38353629  0.23290891  0.53968524     1.00600
C607        C  0.42300493  0.22635722  0.78003977     1.00420
C608        C  0.39979731  0.11299514  0.67503850     1.00370
C609        C  0.42204509  0.34446209  0.66141400     0.98220
H610        H  0.46153419  0.15460310  0.73523249     0.27970
O611        O  0.47943700  0.17222694  0.71055533    -1.02870
H612        H  0.45859773  0.28968181  0.57434224     0.28010
O613        O  0.47811130  0.26765147  0.59526877    -1.05410
O614        O  0.61791118  0.24638007  0.77873314    -0.82640
O615        O  0.60087613  0.20265612  0.51561700    -0.82180
O616        O  0.52343028  0.07107591  0.74097036    -0.80610
O617        O  0.54447388  0.35858404  0.71028889    -0.83950
O618        O  0.55390873  0.33355660  0.54621250    -0.81810
O619        O  0.50460170  0.06487432  0.59432805    -0.80460
O620        O  0.63743713  0.12023712  0.68356052    -0.81980
O621        O  0.67222476  0.28185463  0.64425922    -0.83900
O622        O  0.58491146  0.06310591  0.65940617    -0.80640
O623        O  0.61938874  0.34522151  0.62989330    -0.83320
O624        O  0.56159717  0.12813426  0.78798946    -0.79050
O625        O  0.50924641  0.12368047  0.53287837    -0.79080
O626        O  0.52172074  0.27485617  0.49672114    -0.78730
O627        O  0.53607585  0.30591803  0.77757822    -0.82230
O628        O  0.66891341  0.20203052  0.73632940    -0.81650
O629        O  0.66040553  0.19033704  0.57689183    -0.79980
Eu630      Eu  0.54024446  0.21733190  0.75173791     2.39770
Eu631      Eu  0.51616895  0.20726827  0.55295170     2.39570
Eu632      Eu  0.51495834  0.11361148  0.66409060     2.38400
Eu633      Eu  0.53962220  0.31105554  0.63565715     2.39880
Eu634      Eu  0.62609553  0.20455768  0.65358278     2.39790
O635        O  0.57739908  0.25066583  0.59617193    -0.94390
O636        O  0.57663997  0.15900528  0.70698710    -0.93290
C637        C  0.65551335  0.22081797  0.77623423     1.00780
C638        C  0.64620575  0.19621407  0.53175956     0.99490
C639        C  0.55151515  0.08224199  0.77707855     0.98880
C640        C  0.53975384  0.34974589  0.75670625     1.00900
C641        C  0.54506088  0.31482014  0.50363519     0.99820
C642        C  0.50510270  0.07918483  0.54935397     0.98660
C643        C  0.62642646  0.08437664  0.65689134     0.98720
C644        C  0.66218622  0.32768687  0.63684469     1.01340
H645        H  0.58116753  0.13750424  0.58964560     0.28710
O646        O  0.56474292  0.15984412  0.60943223    -1.06550
H647        H  0.60849588  0.28716686  0.70718361     0.30760
O648        O  0.58582022  0.26369416  0.69341904    -1.09120
C649        C  0.31034085  0.18787369  0.73999228    -0.14890
C650        C  0.31141523  0.16355064  0.78637436     0.07260
C651        C  0.35323577  0.13638665  0.80012317    -0.14890
C652        C  0.37984092  0.11623064  0.76345847    -0.14890
C653        C  0.36929770  0.12972411  0.71387494     0.07260
C654        C  0.33539798  0.16729056  0.70251213    -0.14890
H655        H  0.28136744  0.21333124  0.72991655     0.11240
H656        H  0.35851153  0.12206754  0.83749865     0.11240
H657        H  0.40857993  0.09069457  0.77380458     0.11240
H658        H  0.32875703  0.18117471  0.66517376     0.11240
C659        C  0.66012366  0.04423320  0.53441721    -0.14890
C660        C  0.70995170  0.05568344  0.53590309     0.07260
C661        C  0.73071521  0.08313523  0.57382881    -0.14890
C662        C  0.70274658  0.09438687  0.61268582    -0.14890
C663        C  0.65511437  0.07574564  0.61496450     0.07260
C664        C  0.63328925  0.05229975  0.57481392    -0.14890
H665        H  0.64325437  0.02458269  0.50447849     0.11240
H666        H  0.76905113  0.09355382  0.57464054     0.11240
H667        H  0.71906410  0.11530066  0.64206584     0.11240
H668        H  0.59580047  0.03944318  0.57482652     0.11240
C669        C  0.94725442  0.91631101  0.63973195    -0.14890
C670        C  0.94490491  0.87938655  0.60584085     0.07260
C671        C  0.98457952  0.87291433  0.57605973    -0.14890
C672        C  0.02459160  0.90531459  0.57789743    -0.14890
C673        C  0.02371334  0.94594170  0.60755858     0.07260
C674        C  0.98452763  0.95089387  0.63831367    -0.14890
H675        H  0.91648548  0.92258144  0.66228937     0.11240
H676        H  0.98258171  0.84603209  0.54832479     0.11240
H677        H  0.05521335  0.89978114  0.55501859     0.11240
H678        H  0.98282349  0.98117031  0.66217500     0.11240
C679        C  0.05366174  0.73904637  0.66678678    -0.14890
C680        C  0.00461570  0.72412634  0.66684582     0.07260
C681        C  0.97076171  0.75943343  0.68069720    -0.14890
C682        C  0.98617853  0.80425401  0.70143391    -0.14890
C683        C  0.03608520  0.81601496  0.70701524     0.07260
C684        C  0.06900424  0.78334105  0.68700776    -0.14890
H685        H  0.08109758  0.71346265  0.65717970     0.11240
H686        H  0.93239933  0.74945989  0.68098464     0.11240
H687        H  0.95928676  0.82925705  0.71329285     0.11240
H688        H  0.10774049  0.79152519  0.68818393     0.11240
C689        C  0.03508441  0.23262908  0.76331935    -0.14890
C690        C  0.08565529  0.22469433  0.76911618     0.07260
C691        C  0.11622197  0.26581161  0.77686443    -0.14890
C692        C  0.09655353  0.31326084  0.77890494    -0.14890
C693        C  0.04563864  0.32083418  0.77555202     0.07260
C694        C  0.01541329  0.27953989  0.76694973    -0.14890
H695        H  0.01040934  0.20206510  0.75709843     0.11240
H696        H  0.15541147  0.26135882  0.78060090     0.11240
H697        H  0.12127564  0.34412485  0.78331138     0.11240
H698        H  0.97615026  0.28329573  0.76316149     0.11240
C699        C  0.76765031  0.75660432  0.74934689    -0.14890
C700        C  0.79324311  0.78505909  0.71506499     0.07260
C701        C  0.84324529  0.79481559  0.72393934    -0.14890
C702        C  0.86919699  0.76710387  0.75975660    -0.14890
C703        C  0.84534059  0.72794751  0.78353696     0.07260
C704        C  0.79393904  0.72791910  0.78422777    -0.14890
H705        H  0.72867440  0.75113914  0.74491724     0.11240
H706        H  0.86316219  0.81895580  0.69911336     0.11240
H707        H  0.90860795  0.76997429  0.76174095     0.11240
H708        H  0.77452432  0.69964816  0.80489703     0.11240
C709        C  0.68885482  0.41156078  0.65562765    -0.14890
C710        C  0.70116343  0.36347561  0.64461009     0.07260
C711        C  0.74833048  0.34680643  0.65515143    -0.14890
C712        C  0.78022620  0.37459044  0.68306930    -0.14890
C713        C  0.76564312  0.41983918  0.70017738     0.07260
C714        C  0.72094883  0.43953682  0.68380965    -0.14890
H715        H  0.65276716  0.42582579  0.64682278     0.11240
H716        H  0.75908996  0.31049374  0.64590998     0.11240
H717        H  0.81581878  0.35945118  0.69257662     0.11240
H718        H  0.71001953  0.47532383  0.69442542     0.11240
C719        C  0.03737795  0.75230743  0.50499349    -0.14890
C720        C  0.06727720  0.76134428  0.46450773     0.07260
C721        C  0.04215980  0.78167386  0.42175988    -0.14890
C722        C  0.99091945  0.79360341  0.42043041    -0.14890
C723        C  0.96103754  0.78369526  0.46112568     0.07260
C724        C  0.98637883  0.76260704  0.50324917    -0.14890
H725        H  0.05301983  0.73424452  0.53788159     0.11240
H726        H  0.06186664  0.78674163  0.38834370     0.11240
H727        H  0.97432908  0.80871959  0.38666321     0.11240
H728        H  0.96650197  0.75362540  0.53593509     0.11240
C729        C  0.45437930  0.75926178  0.50481555    -0.14890
C730        C  0.42678124  0.75369919  0.54660142     0.07260
C731        C  0.45273364  0.75660264  0.59238714    -0.14890
C732        C  0.50366146  0.76847003  0.59531521    -0.14890
C733        C  0.53047295  0.77524729  0.55256874     0.07260
C734        C  0.50435135  0.77083809  0.50735323    -0.14890
H735        H  0.43798916  0.74985290  0.46999230     0.11240
H736        H  0.43393348  0.74841755  0.62591059     0.11240
H737        H  0.52218376  0.77128528  0.63072173     0.11240
H738        H  0.52296500  0.77460689  0.47317599     0.11240
C739        C  0.39862775  0.46164044  0.61781419    -0.14890
C740        C  0.35985046  0.44768834  0.58586647     0.07260
C741        C  0.33045007  0.40694597  0.59831783    -0.14890
C742        C  0.34399761  0.37683480  0.63822545    -0.14890
C743        C  0.38938612  0.38517628  0.66191787     0.07260
C744        C  0.41153262  0.43150558  0.65791423    -0.14890
H745        H  0.41976461  0.49488574  0.61115305     0.11240
H746        H  0.29775317  0.39775901  0.57680697     0.11240
H747        H  0.32427631  0.34249942  0.64370810     0.11240
H748        H  0.44496320  0.43964592  0.67879683     0.11240
C749        C  0.10614633  0.55993743  0.66244897    -0.14890
C750        C  0.08311047  0.51468309  0.65604703     0.07260
C751        C  0.06359298  0.50271728  0.60985225    -0.14890
C752        C  0.06384946  0.53714496  0.57115893    -0.14890
C753        C  0.08480505  0.58337438  0.57824409     0.07260
C754        C  0.10561806  0.59466687  0.62422947    -0.14890
H755        H  0.12210731  0.56949160  0.69773337     0.11240
H756        H  0.04718377  0.46726911  0.60380727     0.11240
H757        H  0.04911475  0.52718118  0.53557689     0.11240
H758        H  0.12271205  0.62994677  0.63031322     0.11240
C759        C  0.19179400  0.73816976  0.69999189    -0.14890
C760        C  0.22294590  0.75133027  0.66180386     0.07260
C761        C  0.26300888  0.78254421  0.67057768    -0.14890
C762        C  0.26870961  0.80422884  0.71540640    -0.14890
C763        C  0.23177552  0.79857188  0.74919725     0.07260
C764        C  0.19689051  0.76115983  0.74421232    -0.14890
H765        H  0.16272109  0.71134259  0.69510099     0.11240
H766        H  0.28965173  0.79020246  0.64293852     0.11240
H767        H  0.29668713  0.83243720  0.71960092     0.11240
H768        H  0.16863188  0.75590756  0.77061953     0.11240
C769        C  0.05205836  0.89734609  0.90148060    -0.14890
C770        C  0.10296415  0.89381067  0.90798038     0.07260
C771        C  0.12509103  0.90027640  0.95451500    -0.14890
C772        C  0.09639718  0.90672130  0.99455911    -0.14890
C773        C  0.04525103  0.90523993  0.98866646     0.07260
C774        C  0.02341840  0.90309678  0.94155496    -0.14890
H775        H  0.03417056  0.89388673  0.86570677     0.11240
H776        H  0.16438159  0.89888265  0.96023110     0.11240
H777        H  0.11411265  0.90786662  0.03067558     0.11240
H778        H  0.98404778  0.90194805  0.93632036     0.11240
C779        C  0.85433733  0.69985875  0.33510485    -0.14890
C780        C  0.85153290  0.71965928  0.28706993     0.07260
C781        C  0.80521285  0.73144959  0.26536839    -0.14890
C782        C  0.76420428  0.73093399  0.29324103    -0.14890
C783        C  0.76912869  0.71988758  0.34331634     0.07260
C784        C  0.81250268  0.69849947  0.36278932    -0.14890
H785        H  0.88903285  0.68882718  0.35213178     0.11240
H786        H  0.80083333  0.74511123  0.22770688     0.11240
H787        H  0.73115608  0.74762181  0.27767222     0.11240
H788        H  0.81664810  0.68970312  0.40174352     0.11240
C789        C  0.05963765  0.64640006  0.91725967    -0.14890
C790        C  0.01973890  0.61580607  0.93017391     0.07260
C791        C  0.02653079  0.57988724  0.96812549    -0.14890
C792        C  0.06984501  0.58099975  0.99635002    -0.14890
C793        C  0.09169658  0.62746873  0.99704311     0.07260
C794        C  0.09954073  0.64864050  0.95058301    -0.14890
H795        H  0.05711499  0.67290944  0.88676492     0.11240
H796        H  0.99699257  0.55630448  0.98008340     0.11240
H797        H  0.07188412  0.55703846  0.02878008     0.11240
H798        H  0.12563048  0.67833165  0.94651031     0.11240
C799        C  0.23058246  0.69119797  0.28586989    -0.14890
C800        C  0.19732523  0.68371791  0.32330184     0.07260
C801        C  0.17694855  0.72488445  0.34403926    -0.14890
C802        C  0.18504973  0.77104058  0.32275076    -0.14890
C803        C  0.19621009  0.77033038  0.27372148     0.07260
C804        C  0.23317312  0.73782499  0.26301345    -0.14890
H805        H  0.25015495  0.66109056  0.27175801     0.11240
H806        H  0.15305595  0.72119608  0.37422104     0.11240
H807        H  0.16509730  0.80140641  0.33588254     0.11240
H808        H  0.25219036  0.74234041  0.22912589     0.11240
C809        C  0.77100177  0.50848934  0.02527813    -0.14890
C810        C  0.74654642  0.54906713  0.04184197     0.07260
C811        C  0.73668947  0.58744380  0.00604009    -0.14890
C812        C  0.75373945  0.58636054  0.95705395    -0.14890
C813        C  0.77934726  0.54579142  0.94105591     0.07260
C814        C  0.78600572  0.50658921  0.97645924    -0.14890
H815        H  0.77894432  0.47771651  0.05042122     0.11240
H816        H  0.71760033  0.61947973  0.01651323     0.11240
H817        H  0.74897971  0.61822719  0.93264515     0.11240
H818        H  0.80640415  0.47493352  0.96713990     0.11240
C819        C  0.79836589  0.59031534  0.48987586    -0.14890
C820        C  0.76789663  0.54979434  0.47734960     0.07260
C821        C  0.76067111  0.51505009  0.51699155    -0.14890
C822        C  0.78152319  0.52062755  0.56555018    -0.14890
C823        C  0.81227860  0.56076092  0.57800902     0.07260
C824        C  0.82064806  0.59499900  0.53825372    -0.14890
H825        H  0.80575489  0.61834046  0.46194143     0.11240
H826        H  0.73773989  0.48315083  0.51071733     0.11240
H827        H  0.77481344  0.49209324  0.59324201     0.11240
H828        H  0.84506067  0.62581798  0.54449809     0.11240
C829        C  0.56767088  0.34025739  0.37050966    -0.14890
C830        C  0.61842914  0.33458426  0.36995510     0.07260
C831        C  0.64426624  0.32755037  0.41542873    -0.14890
C832        C  0.62040264  0.32812213  0.45960487    -0.14890
C833        C  0.56970543  0.33354650  0.45983368     0.07260
C834        C  0.54338355  0.33859209  0.41473225    -0.14890
H835        H  0.54716831  0.34898586  0.33717679     0.11240
H836        H  0.68361615  0.32383192  0.41695087     0.11240
H837        H  0.64125060  0.32147092  0.49368784     0.11240
H838        H  0.50391107  0.34072670  0.41379617     0.11240
C839        C  0.53337890  0.52080271  0.45872503    -0.14890
C840        C  0.52444861  0.47752216  0.43390696     0.07260
C841        C  0.47493011  0.46591918  0.42229526    -0.14890
C842        C  0.43980840  0.50265311  0.41919484    -0.14890
C843        C  0.45168917  0.55005750  0.43395042     0.07260
C844        C  0.49765795  0.55740595  0.45787753    -0.14890
H845        H  0.56912748  0.52828778  0.47436617     0.11240
H846        H  0.46543441  0.43138806  0.40606809     0.11240
H847        H  0.40344669  0.49398176  0.40472393     0.11240
H848        H  0.50657707  0.59194567  0.47427181     0.11240
C849        C  0.61168663  0.66433248  0.42435843    -0.14890
C850        C  0.61003842  0.61412434  0.42065579     0.07260
C851        C  0.64226871  0.58642242  0.45251270    -0.14890
C852        C  0.67659245  0.61012565  0.48474281    -0.14890
C853        C  0.68622398  0.66058392  0.47838633     0.07260
C854        C  0.64993799  0.68618979  0.44991409    -0.14890
H855        H  0.58717678  0.68743279  0.40177061     0.11240
H856        H  0.64309690  0.54707219  0.45079839     0.11240
H857        H  0.69554453  0.58934400  0.51375348     0.11240
H858        H  0.64893727  0.72454202  0.44895178     0.11240
C859        C  0.78361739  0.63813784  0.16859045    -0.14890
C860        C  0.80842816  0.60598042  0.20214732     0.07260
C861        C  0.83773254  0.56923331  0.18386190    -0.14890
C862        C  0.84660728  0.56937331  0.13428037    -0.14890
C863        C  0.83702339  0.61274248  0.10747853     0.07260
C864        C  0.79467255  0.63767885  0.11913028    -0.14890
H865        H  0.75644914  0.66298869  0.18029430     0.11240
H866        H  0.85336131  0.54030931  0.20745086     0.11240
H867        H  0.87225246  0.54340437  0.12165444     0.11240
H868        H  0.77968239  0.66588412  0.09414782     0.11240
C869        C  0.48555329  0.46162911  0.81071649    -0.14890
C870        C  0.52673216  0.49251503  0.81847030     0.07260
C871        C  0.57311222  0.47271123  0.81204744    -0.14890
C872        C  0.57779380  0.42476321  0.79533784    -0.14890
C873        C  0.53641315  0.39454813  0.78630491     0.07260
C874        C  0.49033722  0.41343383  0.79527824    -0.14890
H875        H  0.44920622  0.47542718  0.81497215     0.11240
H876        H  0.60559316  0.49534776  0.81687520     0.11240
H877        H  0.61370777  0.41205429  0.78727616     0.11240
H878        H  0.45762453  0.39193439  0.78731811     0.11240
C879        C  0.56884660  0.96399781  0.85624844    -0.14890
C880        C  0.58765834  0.93212921  0.82177165     0.07260
C881        C  0.60370984  0.95456038  0.77824877    -0.14890
C882        C  0.59913321  0.00556889  0.76871243    -0.14890
C883        C  0.57557935  0.03666973  0.80045712     0.07260
C884        C  0.56131294  0.01472558  0.84512204    -0.14890
H885        H  0.55580344  0.94902775  0.89062380     0.11240
H886        H  0.61841245  0.93247228  0.75055195     0.11240
H887        H  0.61115177  0.02009254  0.73406044     0.11240
H888        H  0.54105974  0.03574665  0.86981257     0.11240
C889        C  0.22153191  0.77045777  0.89398895    -0.14890
C890        C  0.26774490  0.76898501  0.92001546     0.07260
C891        C  0.26571246  0.76873767  0.97145294    -0.14890
C892        C  0.22121968  0.76845389  0.99584659    -0.14890
C893        C  0.17465112  0.76767144  0.97101359     0.07260
C894        C  0.17592001  0.76988309  0.91893383    -0.14890
H895        H  0.22044385  0.76980531  0.85444643     0.11240
H896        H  0.29939765  0.76769316  0.99364915     0.11240
H897        H  0.22382782  0.76785194  0.03549327     0.11240
H898        H  0.14187953  0.76939838  0.89741667     0.11240
C899        C  0.74799687  0.72463560  0.93402246    -0.14890
C900        C  0.70671141  0.73694993  0.96130764     0.07260
C901        C  0.71866539  0.75412040  0.00825521    -0.14890
C902        C  0.76797424  0.75845158  0.02694547    -0.14890
C903        C  0.80991064  0.74807413  0.99961420     0.07260
C904        C  0.79808404  0.73061612  0.95224199    -0.14890
H905        H  0.74158541  0.71085577  0.89775033     0.11240
H906        H  0.68946021  0.76374626  0.03139584     0.11240
H907        H  0.77301151  0.77170945  0.06356814     0.11240
H908        H  0.82738444  0.72118712  0.92916620     0.11240
C909        C  0.42510545  0.96743427  0.88287548    -0.14890
C910        C  0.45270561  0.93578416  0.85694034     0.07260
C911        C  0.45447496  0.94242814  0.80573520    -0.14890
C912        C  0.41927385  0.97066563  0.77999506    -0.14890
C913        C  0.38412175  0.99364547  0.80623850     0.07260
C914        C  0.39157057  0.99761108  0.85723329    -0.14890
H915        H  0.42355471  0.96305808  0.92235935     0.11240
H916        H  0.47651953  0.91859288  0.78546379     0.11240
H917        H  0.41473215  0.96762822  0.74066274     0.11240
H918        H  0.36539432  0.01662830  0.87788448     0.11240
C919        C  0.62522146  0.60406170  0.73943249    -0.14890
C920        C  0.64654896  0.65090741  0.74524234     0.07260
C921        C  0.64743692  0.68186238  0.70254438    -0.14890
C922        C  0.61177989  0.67467223  0.66506897    -0.14890
C923        C  0.57353767  0.64146182  0.67583641     0.07260
C924        C  0.58871488  0.59871456  0.70232018    -0.14890
H925        H  0.62755087  0.57640369  0.76893777     0.11240
H926        H  0.66654389  0.71667802  0.70265801     0.11240
H927        H  0.60556050  0.70425981  0.63803138     0.11240
H928        H  0.56427878  0.56727159  0.70512357     0.11240
C929        C  0.37747085  0.62760312  0.71534592    -0.14890
C930        C  0.34888925  0.66972576  0.71824496     0.07260
C931        C  0.29855918  0.66461080  0.70920498    -0.14890
C932        C  0.28067091  0.62279397  0.68561150    -0.14890
C933        C  0.31377800  0.58698884  0.67357943     0.07260
C934        C  0.35718276  0.58388102  0.70108829    -0.14890
H935        H  0.41569781  0.62777842  0.72326942     0.11240
H936        H  0.27453153  0.69293037  0.71842181     0.11240
H937        H  0.24293783  0.61992251  0.67334470     0.11240
H938        H  0.38158335  0.55361955  0.69689589     0.11240
C939        C  0.47482629  0.87704389  0.62075772    -0.14890
C940        C  0.48568352  0.88648407  0.67039850     0.07260
C941        C  0.51827139  0.92558555  0.67938287    -0.14890
C942        C  0.54488193  0.94859763  0.64150357    -0.14890
C943        C  0.54112456  0.93260415  0.59297451     0.07260
C944        C  0.50251506  0.89921569  0.58261262    -0.14890
H945        H  0.44835573  0.84888605  0.61190011     0.11240
H946        H  0.52775302  0.93430815  0.71673399     0.11240
H947        H  0.57500226  0.97243171  0.65203757     0.11240
H948        H  0.49816210  0.88503824  0.54627380     0.11240
C949        C  0.53632230  0.61944712  0.07569524    -0.14890
C950        C  0.49515796  0.60463630  0.04815730     0.07260
C951        C  0.45448565  0.58554322  0.07347844    -0.14890
C952        C  0.45794727  0.57527306  0.12460605    -0.14890
C953        C  0.50150923  0.58596214  0.15103139     0.07260
C954        C  0.53867515  0.61144430  0.12628749    -0.14890
H955        H  0.56701586  0.63725016  0.05816210     0.11240
H956        H  0.42093671  0.57627551  0.05342953     0.11240
H957        H  0.42832655  0.55592472  0.14242814     0.11240
H958        H  0.57204286  0.62118851  0.14550492     0.11240
C959        C  0.48461440  0.25117168  0.28142064    -0.14890
C960        C  0.50866866  0.21820111  0.25100775     0.07260
C961        C  0.53883707  0.24089518  0.21624005    -0.14890
C962        C  0.54425943  0.29294507  0.21213244    -0.14890
C963        C  0.51978576  0.32608772  0.24215366     0.07260
C964        C  0.48951216  0.30325460  0.27688708    -0.14890
H965        H  0.46030604  0.23649627  0.30882117     0.11240
H966        H  0.55705547  0.21868923  0.19090477     0.11240
H967        H  0.56848410  0.30724395  0.18452036     0.11240
H968        H  0.46964959  0.32547562  0.30093354     0.11240
C969        C  0.58367580  0.81477695  0.26678575    -0.14890
C970        C  0.58228583  0.84828700  0.22558044     0.07260
C971        C  0.60044063  0.82850828  0.18247267    -0.14890
C972        C  0.61983674  0.77952095  0.18176331    -0.14890
C973        C  0.62266693  0.74740925  0.22429554     0.07260
C974        C  0.60478678  0.76746746  0.26686887    -0.14890
H975        H  0.56454227  0.82363522  0.29893517     0.11240
H976        H  0.59703430  0.84985370  0.14828292     0.11240
H977        H  0.63188306  0.76657287  0.14745649     0.11240
H978        H  0.60389594  0.74489570  0.30036018     0.11240
C979        C  0.20763288  0.01386105  0.07332902    -0.14890
C980        C  0.23558022  0.97468790  0.09352860     0.07260
C981        C  0.25364336  0.94246911  0.05959529    -0.14890
C982        C  0.24815140  0.95160756  0.00831632    -0.14890
C983        C  0.22373621  0.99330454  0.98788503     0.07260
C984        C  0.20152648  0.02266929  0.02195281    -0.14890
H985        H  0.19373624  0.04036244  0.09730156     0.11240
H986        H  0.27721052  0.91293532  0.07276702     0.11240
H987        H  0.26501482  0.92661983  0.98463548     0.11240
H988        H  0.18015728  0.05346592  0.00998368     0.11240
C989        C  0.32328719  0.96801296  0.49425585    -0.14890
C990        C  0.29075818  0.96104026  0.45333617     0.07260
C991        C  0.24098598  0.95347550  0.46303403    -0.14890
C992        C  0.22485724  0.95319036  0.51185297    -0.14890
C993        C  0.25784718  0.96159452  0.55209133     0.07260
C994        C  0.30719269  0.96890734  0.54215498    -0.14890
H995        H  0.36196448  0.97392977  0.48953793     0.11240
H996        H  0.21457703  0.94824669  0.43309416     0.11240
H997        H  0.18626910  0.94809249  0.51794966     0.11240
H998        H  0.33373298  0.97561891  0.57167078     0.11240
C999        C  0.58994709  0.93909496  0.33742692    -0.14890
C1000       C  0.56137344  0.96963620  0.36412821     0.07260
C1001       C  0.54114563  0.95171146  0.40752309    -0.14890
C1002       C  0.54974136  0.90397647  0.42413541    -0.14890
C1003       C  0.57926867  0.87406943  0.39797030     0.07260
C1004       C  0.59929320  0.89171525  0.35459682    -0.14890
H1005       H  0.60612677  0.95220729  0.30389489     0.11240
H1006       H  0.51751845  0.97379165  0.42783951     0.11240
H1007       H  0.53581416  0.89120847  0.45905305     0.11240
H1008       H  0.62607288  0.87082295  0.33668780     0.11240
C1009       C  0.48873258  0.09086270  0.43544828    -0.14890
C1010       C  0.43868309  0.09900181  0.43956545     0.07260
C1011       C  0.41464331  0.07860337  0.48049712    -0.14890
C1012       C  0.43913136  0.04543100  0.51233401    -0.14890
C1013       C  0.49006847  0.04580194  0.51254366     0.07260
C1014       C  0.51262483  0.05817008  0.46852492    -0.14890
H1015       H  0.50773725  0.10538554  0.40390566     0.11240
H1016       H  0.37535419  0.08156485  0.48268920     0.11240
H1017       H  0.42014324  0.03014486  0.54363329     0.11240
H1018       H  0.55165874  0.05374142  0.46606174     0.11240
C1019       C  0.40116877  0.83421938  0.43054161    -0.14890
C1020       C  0.43782170  0.82531457  0.39770637     0.07260
C1021       C  0.43856406  0.77964996  0.37624691    -0.14890
C1022       C  0.39615742  0.75100174  0.37499530    -0.14890
C1023       C  0.35450267  0.76653991  0.39804663     0.07260
C1024       C  0.35843397  0.80635210  0.42869139    -0.14890
H1025       H  0.40111088  0.86783811  0.45015262     0.11240
H1026       H  0.46780142  0.77094547  0.35268956     0.11240
H1027       H  0.39514643  0.71856682  0.35358791     0.11240
H1028       H  0.32788108  0.81748105  0.44931723     0.11240
C1029       C  0.23676095  0.88070535  0.25030563    -0.14890
C1030       C  0.27889607  0.85798150  0.23532170     0.07260
C1031       C  0.28093984  0.84261734  0.18748659    -0.14890
C1032       C  0.24156313  0.84936675  0.15484701    -0.14890
C1033       C  0.19815078  0.86883425  0.17069016     0.07260
C1034       C  0.19655075  0.88614447  0.21813451    -0.14890
H1035       H  0.23470267  0.89370609  0.28704150     0.11240
H1036       H  0.31310552  0.82574549  0.17539141     0.11240
H1037       H  0.24346590  0.83510691  0.11859006     0.11240
H1038       H  0.16316491  0.90018786  0.23169823     0.11240
C1039       C  0.38137095  0.81644158  0.09643842    -0.14890
C1040       C  0.38111775  0.86698955  0.08459136     0.07260
C1041       C  0.39596524  0.88522164  0.03913192    -0.14890
C1042       C  0.42239568  0.85521921  0.01156529    -0.14890
C1043       C  0.43060310  0.80699492  0.02845318     0.07260
C1044       C  0.40669445  0.78622735  0.06815049    -0.14890
H1045       H  0.36979765  0.80138503  0.13121929     0.11240
H1046       H  0.39438905  0.92385820  0.02873440     0.11240
H1047       H  0.43767715  0.86988123  0.97799426     0.11240
H1048       H  0.41030405  0.74776773  0.07874435     0.11240
C1049       C  0.70311098  0.03255869  0.23623542    -0.14890
C1050       C  0.70476404  0.00037066  0.19745691     0.07260
C1051       C  0.70362673  0.94971962  0.20886488    -0.14890
C1052       C  0.70424570  0.93160131  0.25754407    -0.14890
C1053       C  0.70556351  0.96352074  0.29643810     0.07260
C1054       C  0.70315116  0.01422825  0.28537830    -0.14890
H1055       H  0.70521145  0.07171727  0.22879944     0.11240
H1056       H  0.70510883  0.92396619  0.17994190     0.11240
H1057       H  0.70533870  0.89239690  0.26492512     0.11240
H1058       H  0.70422532  0.03965240  0.31470819     0.11240
C1059       C  0.73505748  0.04637905  0.74404593    -0.14890
C1060       C  0.71808597  0.01761372  0.78402857     0.07260
C1061       C  0.71760631  0.96645021  0.78122798    -0.14890
C1062       C  0.73148318  0.94468028  0.73937313    -0.14890
C1063       C  0.74673045  0.97315653  0.69883529     0.07260
C1064       C  0.75014127  0.02402626  0.70197126    -0.14890
H1065       H  0.73827808  0.08575837  0.74592599     0.11240
H1066       H  0.70685240  0.94262849  0.81169999     0.11240
H1067       H  0.72911649  0.90513857  0.73826197     0.11240
H1068       H  0.76419801  0.04612469  0.67196497     0.11240
C1069       C  0.53960753  0.03137402  0.98163249    -0.14890
C1070       C  0.57260425  0.99252412  0.98802629     0.07260
C1071       C  0.56479893  0.95652184  0.02481339    -0.14890
C1072       C  0.53593419  0.96747910  0.06344647    -0.14890
C1073       C  0.51180141  0.01237937  0.06264108     0.07260
C1074       C  0.50958556  0.04193800  0.01968707    -0.14890
H1075       H  0.54457797  0.05918844  0.95282315     0.11240
H1076       H  0.58879897  0.92540264  0.02942270     0.11240
H1077       H  0.53547538  0.94280119  0.09552982     0.11240
H1078       H  0.48917584  0.07558733  0.01779545     0.11240
C1079       C  0.72690946  0.28047202  0.08626965    -0.14890
C1080       C  0.75577365  0.24548313  0.11181342     0.07260
C1081       C  0.78607101  0.25962928  0.15178908    -0.14890
C1082       C  0.78449725  0.30743409  0.16827367    -0.14890
C1083       C  0.75388117  0.34185784  0.14377525     0.07260
C1084       C  0.72643505  0.32828235  0.10173401    -0.14890
H1085       H  0.70515607  0.27092942  0.05396154     0.11240
H1086       H  0.80997355  0.23333206  0.17084422     0.11240
H1087       H  0.80470237  0.31657710  0.20161998     0.11240
H1088       H  0.70189883  0.35409781  0.08278389     0.11240
C1089       C  0.85810194  0.04453597  0.75374246    -0.14890
C1090       C  0.85504630  0.09259422  0.76957540     0.07260
C1091       C  0.88682108  0.12863361  0.75113127    -0.14890
C1092       C  0.92923004  0.11409418  0.72976440    -0.14890
C1093       C  0.93879032  0.06391446  0.72763933     0.07260
C1094       C  0.90111368  0.02964650  0.73429425    -0.14890
H1095       H  0.83332042  0.01630265  0.76730878     0.11240
H1096       H  0.88428319  0.16612163  0.76195466     0.11240
H1097       H  0.95756686  0.14121265  0.72278840     0.11240
H1098       H  0.90743241  0.99091951  0.73121800     0.11240
C1099       C  0.78476942  0.30696872  0.89233068    -0.14890
C1100       C  0.80153201  0.28571191  0.93720122     0.07260
C1101       C  0.82687397  0.31438724  0.97167948    -0.14890
C1102       C  0.84362522  0.36072390  0.95729434    -0.14890
C1103       C  0.83385885  0.37780195  0.90906747     0.07260
C1104       C  0.79981695  0.35359971  0.87883980    -0.14890
H1105       H  0.76551997  0.28587599  0.86502645     0.09680
H1106       H  0.83864428  0.29917178  0.00736684     0.11240
H1107       H  0.86889082  0.38006934  0.98139351     0.11240
H1108       H  0.79061558  0.36761427  0.84196082     0.11240
C1109       C  0.63942122  0.14520521  0.88416467    -0.14890
C1110       C  0.64784089  0.17832453  0.92132019     0.07260
C1111       C  0.66587118  0.22524793  0.90919028    -0.14890
C1112       C  0.67666643  0.23803059  0.86090478    -0.14890
C1113       C  0.67217029  0.20332541  0.82443023     0.07260
C1114       C  0.65468259  0.15651213  0.83709156    -0.14890
H1115       H  0.62470130  0.10896387  0.89233014     0.11240
H1116       H  0.67387660  0.25111259  0.93748652     0.11240
H1117       H  0.68482298  0.27594451  0.85110863     0.11240
H1118       H  0.64871217  0.12992788  0.80916108     0.11240
C1119       C  0.95254333  0.98963398  0.11001119    -0.14890
C1120       C  0.92962990  0.97322000  0.06691166     0.07260
C1121       C  0.89230181  0.93880691  0.07076468    -0.14890
C1122       C  0.87169396  0.92761958  0.11537954    -0.14890
C1123       C  0.90200251  0.93169483  0.15641911     0.07260
C1124       C  0.93733339  0.97028288  0.15545654    -0.14890
H1125       H  0.98027023  0.01808804  0.10839206     0.11240
H1126       H  0.87651380  0.92516200  0.03810221     0.11240
H1127       H  0.84156124  0.90170045  0.11704509     0.11240
H1128       H  0.95846277  0.97903382  0.18839210     0.11240
C1129       C  0.76161758  0.84965413  0.93556104    -0.14890
C1130       C  0.78765651  0.85998274  0.97980622     0.07260
C1131       C  0.83888483  0.85629891  0.97926261    -0.14890
C1132       C  0.86179212  0.86267321  0.93432177    -0.14890
C1133       C  0.83224614  0.87768345  0.89335832     0.07260
C1134       C  0.78620054  0.85395547  0.89138519    -0.14890
H1135       H  0.72208905  0.84731898  0.93403115     0.11240
H1136       H  0.86080198  0.85476566  0.01290264     0.11240
H1137       H  0.90081645  0.86943795  0.93483438     0.11240
H1138       H  0.76437631  0.85516327  0.85741782     0.11240
C1139       C  0.04318193  0.22905276  0.99646575    -0.14890
C1140       C  0.08619135  0.20647421  0.01491475     0.07260
C1141       C  0.08564920  0.15530477  0.02345327    -0.14890
C1142       C  0.04306327  0.12757343  0.01231384    -0.14890
C1143       C  0.00126112  0.15080732  0.99164529     0.07260
C1144       C  0.00185507  0.20168342  0.98427419    -0.14890
H1145       H  0.04122803  0.26827483  0.99085826     0.11240
H1146       H  0.11799541  0.13685304  0.03829007     0.11240
H1147       H  0.04254761  0.08846527  0.02033474     0.11240
H1148       H  0.96941823  0.22062578  0.97024201     0.11240
C1149       C  0.40871005  0.18488268  0.10824485    -0.14890
C1150       C  0.42567525  0.19473341  0.06128284     0.07260
C1151       C  0.46967202  0.22234060  0.06073397    -0.14890
C1152       C  0.47586736  0.25930411  0.09492929    -0.14890
C1153       C  0.43763577  0.26592392  0.12718826     0.07260
C1154       C  0.41282712  0.22261641  0.14180129    -0.14890
H1155       H  0.38032018  0.15774615  0.11191116     0.11240
H1156       H  0.49043005  0.22521785  0.02782375     0.11240
H1157       H  0.50132473  0.28902401  0.08699453     0.11240
H1158       H  0.38709766  0.22321137  0.17074663     0.11240
C1159       C  0.24277147  0.49937344  0.19832799    -0.14890
C1160       C  0.28655178  0.48082061  0.18031871     0.07260
C1161       C  0.32243983  0.46939365  0.21864220    -0.14890
C1162       C  0.31570090  0.47536212  0.26979124    -0.14890
C1163       C  0.27219745  0.49317110  0.28820234     0.07260
C1164       C  0.23646573  0.50651937  0.25017832    -0.14890
H1165       H  0.21282780  0.50770134  0.17258941     0.11240
H1166       H  0.35700725  0.45457232  0.20900779     0.11240
H1167       H  0.34613881  0.46752897  0.29529222     0.11240
H1168       H  0.20330228  0.52366865  0.26051920     0.11240
C1169       C  0.30113208  0.46326288  0.75332354    -0.14890
C1170       C  0.26341321  0.46260915  0.78831283     0.07260
C1171       C  0.21625960  0.46899303  0.76557126    -0.14890
C1172       C  0.20764902  0.47766914  0.71363979    -0.14890
C1173       C  0.24458960  0.47991700  0.67857165     0.07260
C1174       C  0.29222175  0.47293521  0.70081960    -0.14890
H1175       H  0.33817283  0.45582869  0.76650289     0.11240
H1176       H  0.18487533  0.46679832  0.78826072     0.11240
H1177       H  0.17086316  0.48356487  0.70013853     0.11240
H1178       H  0.32321384  0.47653769  0.67792920     0.11240
C1179       C  0.44945571  0.47180019  0.06344372    -0.14890
C1180       C  0.45160528  0.47378850  0.01230871     0.07260
C1181       C  0.49729804  0.47978464  0.99091491    -0.14890
C1182       C  0.53997306  0.48472528  0.02093019    -0.14890
C1183       C  0.53714811  0.47927901  0.07210417     0.07260
C1184       C  0.49173898  0.47253771  0.09284209    -0.14890
H1185       H  0.41504255  0.46665176  0.08111664     0.11240
H1186       H  0.49999077  0.47909962  0.95153496     0.11240
H1187       H  0.57496657  0.49070331  0.00447606     0.11240
H1188       H  0.48878480  0.46949064  0.13230276     0.11240
C1189       C  0.11680259  0.18715294  0.89154311    -0.14890
C1190       C  0.16139872  0.17177009  0.91399836     0.07260
C1191       C  0.15988510  0.12640712  0.94021583    -0.14890
C1192       C  0.11984552  0.09316668  0.93530190    -0.14890
C1193       C  0.08071128  0.10377301  0.90279411     0.07260
C1194       C  0.07701388  0.15353056  0.88589849    -0.14890
H1195       H  0.11377682  0.22371364  0.87518426     0.11240
H1196       H  0.19157041  0.11570186  0.96247658     0.11240
H1197       H  0.12208091  0.05653979  0.95153860     0.11240
H1198       H  0.04633921  0.16445618  0.86188815     0.11240
C1199       C  0.34808055  0.31452848  0.82678047    -0.14890
C1200       C  0.37605124  0.31909204  0.86984004     0.07260
C1201       C  0.40554231  0.28106410  0.88912742    -0.14890
C1202       C  0.40825391  0.23899034  0.86417382    -0.14890
C1203       C  0.38988056  0.24017968  0.81592067     0.07260
C1204       C  0.35459029  0.27448910  0.79963037    -0.14890
H1205       H  0.32600648  0.34403969  0.81132470     0.11240
H1206       H  0.42785975  0.28459474  0.92230433     0.11240
H1207       H  0.43380328  0.21127605  0.87780410     0.11240
H1208       H  0.33962558  0.27624512  0.76237181     0.11240
C1209       C  0.06814770  0.35432062  0.91445343    -0.14890
C1210       C  0.10938108  0.36228267  0.88649592     0.07260
C1211       C  0.12354714  0.40919285  0.87106398    -0.14890
C1212       C  0.10135815  0.44839301  0.88957332    -0.14890
C1213       C  0.06020356  0.44121783  0.91781222     0.07260
C1214       C  0.04323285  0.39398918  0.93022857    -0.14890
H1215       H  0.05712033  0.31764931  0.92576314     0.11240
H1216       H  0.15548375  0.41562781  0.84960203     0.11240
H1217       H  0.11551726  0.48458362  0.88052082     0.11240
H1218       H  0.01044478  0.38791185  0.95060705     0.11240
C1219       C  0.28473014  0.18240447  0.22303184    -0.14890
C1220       C  0.28325015  0.14397155  0.18996963     0.07260
C1221       C  0.23807717  0.13057988  0.16777961    -0.14890
C1222       C  0.20002148  0.16398945  0.16815687    -0.14890
C1223       C  0.21370972  0.21150304  0.18157669     0.07260
C1224       C  0.24509022  0.21353875  0.22289021    -0.14890
H1225       H  0.31744379  0.19135155  0.24460514     0.11240
H1226       H  0.23413115  0.09844981  0.14620031     0.11240
H1227       H  0.16809556  0.15832967  0.14426102     0.11240
H1228       H  0.24900957  0.24693949  0.24269524     0.11240
C1229       C  0.12736854  0.52805413  0.11631669    -0.14890
C1230       C  0.14825533  0.57534427  0.11295099     0.07260
C1231       C  0.18489612  0.58555388  0.07965718    -0.14890
C1232       C  0.19287894  0.55285342  0.04362982    -0.14890
C1233       C  0.16553614  0.50901794  0.04172550     0.07260
C1234       C  0.13557770  0.49510708  0.08034696    -0.14890
H1235       H  0.10003409  0.51882891  0.14286456     0.11240
H1236       H  0.20236148  0.62132651  0.07689540     0.11240
H1237       H  0.21822535  0.56341593  0.01555180     0.11240
H1238       H  0.11626399  0.46025560  0.08113948     0.11240
C1239       C  0.25733003  0.59043547  0.80096521    -0.14890
C1240       C  0.27801454  0.61620646  0.84050843     0.07260
C1241       C  0.24401840  0.64001369  0.86916763    -0.14890
C1242       C  0.19237128  0.63738872  0.85921104    -0.14890
C1243       C  0.17175641  0.61041405  0.82040837     0.07260
C1244       C  0.20589286  0.58766970  0.79132395    -0.14890
H1245       H  0.28104123  0.57179933  0.77743629     0.11240
H1246       H  0.25738409  0.66130524  0.89951276     0.11240
H1247       H  0.16865415  0.65549433  0.88279577     0.11240
H1248       H  0.19237900  0.56660664  0.76094576     0.11240
C1249       C  0.77215076  0.23268440  0.50999630    -0.14890
C1250       C  0.79189192  0.18871371  0.49518093     0.07260
C1251       C  0.75889211  0.15325388  0.47665316    -0.14890
C1252       C  0.70779125  0.15892505  0.47948888    -0.14890
C1253       C  0.68881295  0.20053133  0.49999658     0.07260
C1254       C  0.72170513  0.23873591  0.51149299    -0.14890
H1255       H  0.79570806  0.26235822  0.52206537     0.11240
H1256       H  0.77258286  0.12022187  0.46216609     0.11240
H1257       H  0.68343731  0.12908520  0.46965152     0.11240
H1258       H  0.70867876  0.27113556  0.52801058     0.11240
C1259       C  0.26752677  0.29206280  0.47990501    -0.14890
C1260       C  0.23186190  0.25597701  0.49197984     0.07260
C1261       C  0.24984473  0.21113623  0.51283264    -0.14890
C1262       C  0.29987224  0.20221794  0.52087416    -0.14890
C1263       C  0.33554638  0.23816587  0.51075418     0.07260
C1264       C  0.31846617  0.28370521  0.49039792    -0.14890
H1265       H  0.25610961  0.32720011  0.46412872     0.11240
H1266       H  0.22496664  0.18202808  0.52405819     0.11240
H1267       H  0.31060122  0.16779867  0.53897393     0.11240
H1268       H  0.34424755  0.31361813  0.48471776     0.11240
C1269       C  0.98990662  0.96695794  0.35882658    -0.14890
C1270       C  0.01836345  0.00827705  0.34316461     0.07260
C1271       C  0.05535727  0.99883517  0.31060088    -0.14890
C1272       C  0.06167230  0.95189924  0.29229377    -0.14890
C1273       C  0.03112138  0.91125664  0.30470745     0.07260
C1274       C  0.99547876  0.91966549  0.33930058    -0.14890
H1275       H  0.96234184  0.97130080  0.38545624     0.11240
H1276       H  0.07912044  0.02830856  0.29788504     0.11240
H1277       H  0.08950650  0.94803355  0.26575842     0.11240
H1278       H  0.97020131  0.89055953  0.34943091     0.11240
C1279       C  0.04067529  0.48066447  0.33036328    -0.14890
C1280       C  0.00123507  0.44687078  0.32148842     0.07260
C1281       C  0.96199311  0.46667641  0.29201134    -0.14890
C1282       C  0.96261894  0.51640037  0.27260079    -0.14890
C1283       C  0.00165817  0.55031390  0.28239814     0.07260
C1284       C  0.04059907  0.53073436  0.31224883    -0.14890
H1285       H  0.07271335  0.46823047  0.35144621     0.11240
H1286       H  0.93074220  0.44350582  0.28316832     0.11240
H1287       H  0.93212300  0.52836939  0.24897900     0.11240
H1288       H  0.07242689  0.55354064  0.31991652     0.11240
C1289       C  0.00273854  0.43755900  0.46687258    -0.14890
C1290       C  0.01492857  0.39820714  0.49896994     0.07260
C1291       C  0.06223422  0.39282926  0.51839101    -0.14890
C1292       C  0.09891692  0.42197616  0.50031780    -0.14890
C1293       C  0.08812747  0.45855413  0.46423130     0.07260
C1294       C  0.03941521  0.46880672  0.45044305    -0.14890
H1295       H  0.96609794  0.44141926  0.45116732     0.11240
H1296       H  0.07218817  0.36273702  0.54318592     0.11240
H1297       H  0.13579601  0.41541450  0.51464575     0.11240
H1298       H  0.02997847  0.49953222  0.42585829     0.11240
C1299       C  0.87103996  0.03345480  0.34586958    -0.14890
C1300       C  0.83439755  0.02450389  0.37987098     0.07260
C1301       C  0.79610765  0.05818621  0.37920920    -0.14890
C1302       C  0.79831081  0.10252229  0.35134477    -0.14890
C1303       C  0.84172292  0.11706331  0.32842549     0.07260
C1304       C  0.87476745  0.07942160  0.32039386    -0.14890
H1305       H  0.89854025  0.00647110  0.34144294     0.11240
H1306       H  0.76487768  0.05102718  0.40131540     0.11240
H1307       H  0.77078919  0.12953732  0.35684826     0.11240
H1308       H  0.90778927  0.08798873  0.30107984     0.11240
C1309       C  0.95750307  0.28791606  0.62223602    -0.14890
C1310       C  0.00676021  0.27703416  0.61515232     0.07260
C1311       C  0.04199559  0.31429143  0.62240249    -0.14890
C1312       C  0.02765835  0.36191709  0.63331853    -0.14890
C1313       C  0.97783721  0.37339562  0.63590801     0.07260
C1314       C  0.94334128  0.33519073  0.63164250    -0.14890
H1315       H  0.92909860  0.26021135  0.61812821     0.11240
H1316       H  0.08029672  0.30710828  0.61815300     0.11240
H1317       H  0.05558853  0.38919218  0.64115407     0.11240
H1318       H  0.90505326  0.34175830  0.63702079     0.11240
C1319       C  0.09475368  0.11594222  0.59858345    -0.14890
C1320       C  0.14027478  0.09457338  0.59037806     0.07260
C1321       C  0.14142085  0.05658462  0.55774106    -0.14890
C1322       C  0.09815084  0.04211313  0.53261943    -0.14890
C1323       C  0.05309986  0.06465373  0.54079016     0.07260
C1324       C  0.05178696  0.09970450  0.57605355    -0.14890
H1325       H  0.09167822  0.14440481  0.62453374     0.11240
H1326       H  0.17534770  0.03874081  0.55130627     0.11240
H1327       H  0.10040630  0.01656863  0.50359410     0.11240
H1328       H  0.01819226  0.11838302  0.58235990     0.11240
C1329       C  0.85410152  0.41528350  0.42175963    -0.14890
C1330       C  0.83684550  0.36695323  0.42833567     0.07260
C1331       C  0.79704631  0.35098226  0.39952143    -0.14890
C1332       C  0.78869209  0.37431196  0.35422270    -0.14890
C1333       C  0.81152169  0.41913955  0.34316550     0.07260
C1334       C  0.84184588  0.44153324  0.37822709    -0.14890
H1335       H  0.88264132  0.42931296  0.44602832     0.11240
H1336       H  0.78247581  0.31415107  0.40515633     0.11240
H1337       H  0.76666496  0.35610188  0.32657540     0.11240
H1338       H  0.85728365  0.47772201  0.37111380     0.11240
C1339       C  0.17279037  0.05040735  0.38765528    -0.14890
C1340       C  0.18060994  0.08537474  0.42327068     0.07260
C1341       C  0.22625074  0.10849706  0.42786158    -0.14890
C1342       C  0.25740583  0.10839041  0.38906938    -0.14890
C1343       C  0.24391565  0.08251766  0.34721590     0.07260
C1344       C  0.20360778  0.05019593  0.34853707    -0.14890
H1345       H  0.13817565  0.03078411  0.38479785     0.11240
H1346       H  0.23371446  0.13395881  0.45632367     0.11240
H1347       H  0.29021132  0.13100891  0.39058875     0.11240
H1348       H  0.19404175  0.02733667  0.31809766     0.11240
C1349       C  0.90598416  0.17136839  0.21176499    -0.14890
C1350       C  0.95630182  0.18153144  0.21080260     0.07260
C1351       C  0.98598011  0.15307673  0.18309621    -0.14890
C1352       C  0.96558322  0.11461807  0.15733478    -0.14890
C1353       C  0.91568115  0.10301042  0.16046684     0.07260
C1354       C  0.88612767  0.13142221  0.18807679    -0.14890
H1355       H  0.88222175  0.19276547  0.23278608     0.11240
H1356       H  0.02501234  0.15998890  0.18236955     0.11240
H1357       H  0.98824842  0.09572150  0.13301673     0.11240
H1358       H  0.84695246  0.12508951  0.18809747     0.11240
C1359       C  0.11724255  0.28698123  0.22022504    -0.14890
C1360       C  0.13882761  0.30493434  0.26340569     0.07260
C1361       C  0.16105231  0.35144148  0.26280206    -0.14890
C1362       C  0.16480133  0.37801048  0.21872745    -0.14890
C1363       C  0.14642725  0.35813021  0.17509092     0.07260
C1364       C  0.12012223  0.31388957  0.17651969    -0.14890
H1365       H  0.09737164  0.25239921  0.22025507     0.11240
H1366       H  0.17578566  0.36689867  0.29623407     0.11240
H1367       H  0.18561271  0.41198672  0.21803707     0.11240
H1368       H  0.10626135  0.29750039  0.14320785     0.11240
loop_ 
_geom_bond_atom_site_label_1 
_geom_bond_atom_site_label_2 
_geom_bond_distance 
_geom_bond_site_symmetry_2 
_ccdc_geom_bond_type 
O1           C12   1.282       .  A
O1          Eu37   2.417       .  S
O2           C13   1.302   1_655  A
O2          Eu36   2.539       .  S
O3           C14   1.288       .  A
O3           Eu9   2.438       .  S
O4           C15   1.283   1_455  A
O4           Eu9   2.407       .  S
O5           C15   1.287       .  A
O5          Eu39   2.421       .  S
O6           C14   1.284       .  A
O6          Eu38   2.416       .  S
O7           C13   1.303       .  A
O7           Eu9   2.533       .  S
O8           C12   1.285       .  A
O8           Eu9   2.421       .  S
Eu9          O19   2.381       .  S
Eu9          O11   2.388       .  S
Eu9          O10   2.378   1_455  S
Eu9          O17   2.235       .  S
O10         Eu39   2.425       .  S
O10         Eu36   2.432       .  S
O11         Eu37   2.356       .  S
O11         Eu38   2.397       .  S
C12        C1360   1.446       .  S
C13        C1270   1.543       .  S
C14        C1340   1.446       .  S
C15        C1350   1.451       .  S
H16          O17   0.952       .  S
O17         Eu38   2.321       .  S
O17         Eu36   2.303   1_455  S
H18          O19   0.965       .  S
O19         Eu37   2.413       .  S
O19         Eu39   2.357   1_455  S
O20          C43   1.295       .  A
O20         Eu36   2.497       .  S
O21          C44   1.266       .  A
O21         Eu37   2.433   1_655  S
O22          C45   1.241       .  A
O22         Eu38   2.461       .  S
O23          C46   1.306       .  A
O23         Eu39   2.588       .  S
O24          C47   1.329   1_655  A
O24         Eu39   2.669       .  S
O25          C48   1.284       .  A
O25         Eu38   2.429       .  S
O26          C49   1.263   1_655  A
O26         Eu40   2.397       .  S
O27          C50   1.276       .  A
O27         Eu40   2.412       .  S
O28          C49   1.286       .  A
O28         Eu38   2.523       .  S
O29          C50   1.289       .  A
O29         Eu39   2.425       .  S
O30          C45   1.279   1_655  A
O30         Eu36   2.485       .  S
O31          C48   1.310       .  A
O31         Eu37   2.585       .  S
O32          C47   1.300       .  A
O32         Eu37   2.490       .  S
O33          C46   1.258       .  A
O33         Eu36   2.358       .  S
O34          C43   1.289       .  A
O34         Eu40   2.463       .  S
O35          C44   1.258       .  A
O35         Eu40   2.417       .  S
Eu36         O54   2.414       .  S
Eu36         O42   2.411       .  S
Eu37         O41   2.323   1_455  S
Eu37         O52   2.408       .  S
Eu38         O52   2.376       .  S
Eu38         O42   2.441   1_455  S
Eu39         O41   2.281       .  S
Eu39         O54   2.383       .  S
Eu40         O41   2.367       .  S
Eu40         O52   2.494   1_655  S
Eu40         O54   2.334       .  S
Eu40         O42   2.381       .  S
C43        C1250   1.504       .  S
C44        C1290   1.418   1_655  S
C45        C1323   1.432       .  S
C46        C1303   1.480       .  S
C47        C1280   1.575       .  S
C48        C1260   1.535       .  S
C49        C1310   1.495       .  S
C50        C1330   1.437       .  S
H51          O52   0.964       .  S
H53          O54   0.963       .  S
O55          C66   1.281       .  A
O55         Eu91   2.406       .  S
O56          C67   1.269       .  A
O56         Eu90   2.396       .  S
O57          C68   1.288   1_556  A
O57         Eu63   2.439   1_556  S
O58          C69   1.294       .  A
O58         Eu63   2.427       .  S
O59          C69   1.301       .  A
O59         Eu93   2.513       .  S
O60          C68   1.275   1_556  A
O60         Eu92   2.402       .  S
O61          C67   1.266       .  A
O61         Eu63   2.448   1_556  S
O62          C66   1.287       .  A
O62         Eu63   2.433       .  S
Eu63         O73   2.298       .  S
Eu63         O65   2.369       .  S
Eu63         O64   2.327   1_554  S
Eu63         O71   2.372   1_554  S
O64         Eu93   2.337   1_556  S
O64         Eu90   2.289       .  S
O65         Eu91   2.386       .  S
O65         Eu92   2.343   1_554  S
C66        C1363   1.443       .  S
C67        C1210   1.423       .  S
C68        C1233   1.457       .  S
C69        C1140   1.486       .  S
H70          O71   0.959       .  S
O71         Eu92   2.399       .  S
O71         Eu90   2.403       .  S
H72          O73   0.957       .  S
O73         Eu91   2.310       .  S
O73         Eu93   2.339       .  S
O74          C97   1.255       .  A
O74         Eu90   2.430       .  S
O75          C98   1.292       .  A
O75         Eu91   2.490       .  S
O76          C99   1.355       .  A
O76         Eu92   2.802       .  S
O77         C100   1.278       .  A
O77         Eu93   2.391   1_556  S
O78         C101   1.296       .  A
O78         Eu93   2.452       .  S
O79         C102   1.355       .  A
O79         Eu92   2.814   1_554  S
O80         C103   1.283       .  A
O80         Eu94   2.442       .  S
O81         C104   1.281   1_556  A
O81         Eu94   2.434       .  S
O82         C103   1.292       .  A
O82         Eu92   2.479       .  S
O83         C104   1.300       .  A
O83         Eu93   2.498       .  S
O84          C99   1.282       .  A
O84         Eu90   2.417       .  S
O85         C102   1.267       .  A
O85         Eu91   2.341       .  S
O86         C101   1.289       .  A
O86         Eu91   2.442       .  S
O87         C100   1.306       .  A
O87         Eu90   2.588       .  S
O88          C97   1.251       .  A
O88         Eu94   2.399       .  S
O89          C98   1.279       .  A
O89         Eu94   2.444   1_554  S
Eu90        O108   2.366       .  S
Eu90         O96   2.366       .  S
Eu91         O95   2.331       .  S
Eu91        O106   2.365       .  S
Eu92        O106   2.388   1_556  S
Eu92         O96   2.378       .  S
Eu93         O95   2.362       .  S
Eu93        O108   2.450   1_554  S
Eu94         O95   2.338   1_556  S
Eu94        O106   2.321   1_556  S
Eu94        O108   2.444       .  S
Eu94         O96   2.370       .  S
C97        C1200   1.411       .  S
C98        C1153   1.493       .  S
C99        C1170   1.586       .  S
C100       C1190   1.524       .  S
C101       C1223   1.478       .  S
C102       C1160   1.589       .  S
C103       C1180   1.459   1_556  S
C104       C1150   1.494       .  S
H105        O106   0.961       .  S
H107        O108   0.965       .  S
O109        C120   1.287       .  A
O109       Eu145   2.460       .  S
O110        C121   1.284       .  A
O110       Eu144   2.373       .  S
O111        C122   1.275   1_554  A
O111       Eu117   2.389       .  S
O112        C123   1.277       .  A
O112       Eu117   2.389       .  S
O113        C123   1.298       .  A
O113       Eu147   2.507       .  S
O114        C122   1.291       .  A
O114       Eu146   2.508       .  S
O115        C121   1.286       .  A
O115       Eu117   2.436   1_556  S
O116        C120   1.266       .  A
O116       Eu117   2.382       .  S
Eu117       O127   2.377       .  S
Eu117       O119   2.326   1_554  S
Eu117       O118   2.263   1_554  S
Eu117       O125   2.354   1_554  S
O118       Eu147   2.418   1_556  S
O118       Eu144   2.376       .  S
O119       Eu145   2.367   1_556  S
O119       Eu146   2.412       .  S
C120       C1353   1.437       .  S
C121       C1100   1.451       .  S
C122       C1143   1.468   1_655  S
C123       C1080   1.466       .  S
H124        O125   0.966       .  S
O125       Eu146   2.352       .  S
O125       Eu144   2.378       .  S
H126        O127   0.966       .  S
O127       Eu145   2.354       .  S
O127       Eu147   2.363       .  S
O128        C151   1.288       .  A
O128       Eu144   2.452       .  S
O129        C152   1.291       .  A
O129       Eu145   2.547   1_565  S
O130        C153   1.289       .  A
O130       Eu146   2.425       .  S
O131        C154   1.268   1_554  A
O131       Eu147   2.478       .  S
O132        C155   1.300       .  A
O132       Eu147   2.520       .  S
O133        C156   1.259   1_556  A
O133       Eu146   2.467       .  S
O134        C157   1.289       .  A
O134       Eu148   2.470       .  S
O135        C158   1.288   1_565  A
O135       Eu148   2.445       .  S
O136        C157   1.294       .  A
O136       Eu146   2.475   1_565  S
O137        C158   1.289   1_554  A
O137       Eu147   2.433       .  S
O138        C153   1.284       .  A
O138       Eu144   2.428       .  S
O139        C156   1.253       .  A
O139       Eu145   2.395       .  S
O140        C155   1.285   1_565  A
O140       Eu145   2.433   1_565  S
O141        C154   1.263       .  A
O141       Eu144   2.425       .  S
O142        C151   1.284       .  A
O142       Eu148   2.417   1_545  S
O143        C152   1.269   1_556  A
O143       Eu148   2.410       .  S
Eu144       O162   2.368       .  S
Eu144       O150   2.333       .  S
Eu145       O149   2.318       .  S
Eu145       O160   2.359   1_544  S
Eu146       O160   2.406   1_545  S
Eu146       O150   2.313       .  S
Eu147       O149   2.375       .  S
Eu147       O162   2.462   1_554  S
Eu148       O149   2.402   1_566  S
Eu148       O160   2.401       .  S
Eu148       O162   2.313   1_565  S
Eu148       O150   2.364   1_565  S
C151       C1060   1.477       .  S
C152       C1130   1.491   1_554  S
C153       C1090   1.451       .  S
C154       C1110   1.440       .  S
C155       C1050   1.493       .  S
C156       C1120   1.443   1_545  S
C157       C1133   1.493       .  S
C158       C1070   1.449   1_545  S
H159        O160   0.953       .  S
H161        O162   0.964       .  S
O163        C174   1.286       .  A
O163       Eu199   2.440       .  S
O164        C175   1.274       .  A
O164       Eu198   2.437       .  S
O165        C176   1.325       .  A
O165       Eu171   2.649       .  S
O166        C177   1.316       .  A
O166       Eu171   2.577       .  S
O167        C177   1.292       .  A
O167       Eu201   2.445       .  S
O168        C176   1.273   1_545  A
O168       Eu200   2.346       .  S
O169        C175   1.264       .  A
O169       Eu171   2.437       .  S
O170        C174   1.279       .  A
O170       Eu171   2.449   1_545  S
Eu171       O181   2.332   1_565  S
Eu171       O173   2.322   1_565  S
Eu171       O172   2.375       .  S
Eu171       O179   2.352       .  S
O172       Eu201   2.320       .  S
O172       Eu198   2.323       .  S
O173       Eu199   2.330       .  S
O173       Eu200   2.315       .  S
C174       C1343   1.461       .  S
C175       C1030   1.453       .  S
C176        C980   1.503       .  S
C177        C990   1.519       .  S
H178        O179   0.960       .  S
O179       Eu200   2.357   1_565  S
O179       Eu198   2.369       .  S
H180        O181   0.955       .  S
O181       Eu199   2.340       .  S
O181       Eu201   2.326   1_545  S
O182        C205   1.277       .  A
O182       Eu198   2.391       .  S
O183        C206   1.274       .  A
O183       Eu199   2.355       .  S
O184        C207   1.280       .  A
O184       Eu200   2.406   1_565  S
O185        C208   1.279       .  A
O185       Eu201   2.383       .  S
O186        C209   1.257       .  A
O186       Eu201   2.382   1_545  S
O187        C210   1.278       .  A
O187       Eu200   2.448       .  S
O188        C211   1.292       .  A
O188       Eu202   2.458       .  S
O189        C212   1.277       .  A
O189       Eu202   2.418       .  S
O190        C211   1.281       .  A
O190       Eu200   2.409       .  S
O191        C212   1.280       .  A
O191       Eu201   2.478   1_545  S
O192        C207   1.276       .  A
O192       Eu198   2.363       .  S
O193        C210   1.262       .  A
O193       Eu199   2.356       .  S
O194        C209   1.279       .  A
O194       Eu199   2.451       .  S
O195        C208   1.284       .  A
O195       Eu198   2.419       .  S
O196        C205   1.344       .  A
O196       Eu202   2.746   1_565  S
O197        C206   1.342       .  A
O197       Eu202   2.730       .  S
Eu198       O216   2.313       .  S
Eu198       O204   2.365       .  S
Eu199       O203   2.331       .  S
Eu199       O214   2.404       .  S
Eu200       O214   2.360       .  S
Eu200       O204   2.353   1_545  S
Eu201       O203   2.345   1_565  S
Eu201       O216   2.353       .  S
Eu202       O203   2.403       .  S
Eu202       O214   2.388       .  S
Eu202       O216   2.421   1_545  S
Eu202       O204   2.374   1_545  S
C205        C970   1.565       .  S
C206        C960   1.555       .  S
C207       C1040   1.427       .  S
C208       C1020   1.451       .  S
C209       C1010   1.428       .  S
C210       C1220   1.451       .  S
C211       C1073   1.454       .  S
C212       C1000   1.454   1_545  S
H213        O214   0.966       .  S
H215        O216   0.959       .  S
O217        C228   1.310       .  A
O217       Eu253   2.602       .  S
O218        C229   1.282       .  A
O218       Eu252   2.386       .  S
O219        C230   1.284       .  A
O219       Eu225   2.414       .  S
O220        C231   1.296       .  A
O220       Eu225   2.487       .  S
O221        C231   1.317       .  A
O221       Eu255   2.617       .  S
O222        C230   1.309       .  A
O222       Eu254   2.543       .  S
O223        C229   1.274       .  A
O223       Eu225   2.361       .  S
O224        C228   1.298       .  A
O224       Eu225   2.522       .  S
Eu225       O235   2.304       .  S
Eu225       O227   2.363       .  S
Eu225       O226   2.352       .  S
Eu225       O233   2.430       .  S
O226       Eu255   2.374       .  S
O226       Eu252   2.417       .  S
O227       Eu253   2.356       .  S
O227       Eu254   2.413       .  S
C228       C1240   1.548       .  S
C229       C1043   1.400   1_556  S
C230        C950   1.485   1_556  S
C231        C890   1.553       .  S
H232        O233   0.964       .  S
O233       Eu254   2.378       .  S
O233       Eu252   2.356       .  S
H234        O235   0.958       .  S
O235       Eu253   2.356       .  S
O235       Eu255   2.350       .  S
O236        C259   1.285       .  A
O236       Eu252   2.436       .  S
O237        C260   1.294       .  A
O237       Eu253   2.490       .  S
O238        C261   1.302       .  A
O238       Eu254   2.535       .  S
O239        C262   1.286       .  A
O239       Eu255   2.449       .  S
O240        C263   1.276       .  A
O240       Eu255   2.499       .  S
O241        C264   1.306       .  A
O241       Eu254   2.541       .  S
O242        C265   1.290       .  A
O242       Eu256   2.478       .  S
O243        C266   1.292       .  A
O243       Eu256   2.456       .  S
O244        C265   1.298       .  A
O244       Eu254   2.496       .  S
O245        C266   1.314       .  A
O245       Eu255   2.589       .  S
O246        C261   1.318       .  A
O246       Eu252   2.622       .  S
O247        C264   1.295       .  A
O247       Eu253   2.476       .  S
O248        C263   1.258       .  A
O248       Eu253   2.405       .  S
O249        C262   1.288       .  A
O249       Eu252   2.463       .  S
O250        C259   1.316       .  A
O250       Eu256   2.618       .  S
O251        C260   1.292       .  A
O251       Eu256   2.482       .  S
Eu252       O270   2.376       .  S
Eu252       O258   2.319       .  S
Eu253       O257   2.396       .  S
Eu253       O268   2.339       .  S
Eu254       O268   2.343       .  S
Eu254       O258   2.416       .  S
Eu255       O257   2.392       .  S
Eu255       O270   2.371       .  S
Eu256       O257   2.364       .  S
Eu256       O268   2.407       .  S
Eu256       O270   2.301       .  S
Eu256       O258   2.373       .  S
C259        C880   1.534       .  S
C260        C923   1.492       .  S
C261        C900   1.570       .  S
C262        C910   1.453       .  S
C263        C930   1.479       .  S
C264        C870   1.512       .  S
C265        C920   1.490       .  S
C266        C940   1.517       .  S
H267        O268   0.957       .  S
H269        O270   0.958       .  S
O271        C282   1.267       .  A
O271       Eu307   2.429       .  S
O272        C283   1.296       .  A
O272       Eu306   2.502       .  S
O273        C284   1.296       .  A
O273       Eu279   2.515       .  S
O274        C285   1.253       .  A
O274       Eu279   2.439       .  S
O275        C285   1.284       .  A
O275       Eu309   2.486       .  S
O276        C284   1.274       .  A
O276       Eu308   2.364       .  S
O277        C283   1.313       .  A
O277       Eu279   2.592       .  S
O278        C282   1.269       .  A
O278       Eu279   2.442       .  S
Eu279       O289   2.528       .  S
Eu279       O281   2.412       .  S
Eu279       O280   2.399       .  S
Eu279       O287   2.320       .  S
O280       Eu309   2.423       .  S
O280       Eu306   2.307       .  S
O281       Eu307   2.418       .  S
O281       Eu308   2.312       .  S
C282       C1333   1.434       .  S
C283        C810   1.544       .  S
C284       C1083   1.466       .  S
C285        C860   1.457       .  S
H286        O287   0.964       .  S
O287       Eu308   2.367       .  S
O287       Eu306   2.404       .  S
H288        O289   0.971       .  S
O289       Eu307   2.362       .  S
O289       Eu309   2.344       .  S
O290        C313   1.254       .  A
O290       Eu306   2.373       .  S
O291        C314   1.312       .  A
O291       Eu307   2.606       .  S
O292        C315   1.298       .  A
O292       Eu308   2.501       .  S
O293        C316   1.305       .  A
O293       Eu309   2.533       .  S
O294        C317   1.331       .  A
O294       Eu309   2.672       .  S
O295        C318   1.307       .  A
O295       Eu308   2.589       .  S
O296        C319   1.334       .  A
O296       Eu310   2.754       .  S
O297        C320   1.298       .  A
O297       Eu310   2.569       .  S
O298        C319   1.259       .  A
O298       Eu308   2.335       .  S
O299        C320   1.265       .  A
O299       Eu309   2.406       .  S
O300        C315   1.286       .  A
O300       Eu306   2.426       .  S
O301        C318   1.263       .  A
O301       Eu307   2.384       .  S
O302        C317   1.300       .  A
O302       Eu307   2.505       .  S
O303        C316   1.319       .  A
O303       Eu306   2.637       .  S
O304        C313   1.270       .  A
O304       Eu310   2.537       .  S
O305        C314   1.270       .  A
O305       Eu310   2.363       .  S
Eu306       O324   2.383       .  S
Eu306       O312   2.418       .  S
Eu307       O311   2.289       .  S
Eu307       O322   2.353       .  S
Eu308       O322   2.358       .  S
Eu308       O312   2.335       .  S
Eu309       O311   2.386       .  S
Eu309       O324   2.443       .  S
Eu310       O311   2.417       .  S
Eu310       O322   2.295       .  S
Eu310       O324   2.515       .  S
Eu310       O312   2.361       .  S
C313        C953   1.487       .  S
C314        C840   1.495       .  S
C315       C1183   1.460       .  S
C316        C973   1.572       .  S
C317        C820   1.578       .  S
C318        C830   1.489       .  S
C319        C963   1.564       .  S
C320        C850   1.483       .  S
H321        O322   0.950       .  S
H323        O324   0.969       .  S
O325        C336   1.327       .  A
O325       Eu361   2.657       .  S
O326        C337   1.283       .  A
O326       Eu360   2.416       .  S
O327        C338   1.289       .  A
O327       Eu333   2.419   1_655  S
O328        C339   1.281       .  A
O328       Eu333   2.411       .  S
O329        C339   1.283       .  A
O329       Eu363   2.438       .  S
O330        C338   1.281       .  A
O330       Eu362   2.382       .  S
O331        C337   1.271       .  A
O331       Eu333   2.372       .  S
O332        C336   1.290   1_655  A
O332       Eu333   2.473   1_655  S
Eu333       O343   2.343       .  S
Eu333       O335   2.296   1_455  S
Eu333       O334   2.352       .  S
Eu333       O341   2.367   1_455  S
O334       Eu363   2.328       .  S
O334       Eu360   2.392       .  S
O335       Eu361   2.378   1_655  S
O335       Eu362   2.382       .  S
C336       C1283   1.567       .  S
C337        C793   1.482   1_554  S
C338        C863   1.458       .  S
C339       C1230   1.458       .  S
H340        O341   0.963       .  S
O341       Eu362   2.405       .  S
O341       Eu360   2.323   1_655  S
H342        O343   0.966       .  S
O343       Eu361   2.398       .  S
O343       Eu363   2.391       .  S
O344        C367   1.281   1_655  A
O344       Eu360   2.451   1_655  S
O345        C368   1.326       .  A
O345       Eu361   2.648       .  S
O346        C369   1.286       .  A
O346       Eu362   2.427       .  S
O347        C370   1.289       .  A
O347       Eu363   2.463       .  S
O348        C371   1.276       .  A
O348       Eu363   2.381       .  S
O349        C372   1.278       .  A
O349       Eu362   2.370       .  S
O350        C373   1.262       .  A
O350       Eu364   2.348   1_655  S
O351        C374   1.280       .  A
O351       Eu364   2.418       .  S
O352        C373   1.303       .  A
O352       Eu362   2.484       .  S
O353        C374   1.275       .  A
O353       Eu363   2.391       .  S
O354        C369   1.337       .  A
O354       Eu360   2.718   1_655  S
O355        C372   1.302       .  A
O355       Eu361   2.512   1_655  S
O356        C371   1.305       .  A
O356       Eu361   2.489       .  S
O357        C370   1.322   1_556  A
O357       Eu360   2.647   1_556  S
O358        C367   1.287       .  A
O358       Eu364   2.448       .  S
O359        C368   1.287       .  A
O359       Eu364   2.420       .  S
Eu360       O378   2.370       .  S
Eu360       O366   2.359   1_455  S
Eu361       O365   2.391       .  S
Eu361       O376   2.331   1_455  S
Eu362       O376   2.315       .  S
Eu362       O366   2.352       .  S
Eu363       O365   2.317       .  S
Eu363       O378   2.336       .  S
Eu364       O365   2.318       .  S
Eu364       O376   2.360   1_455  S
Eu364       O378   2.378       .  S
Eu364       O366   2.393   1_455  S
C367        C773   1.459   1_554  S
C368       C1273   1.537       .  S
C369        C903   1.584   1_554  S
C370        C893   1.562   1_554  S
C371        C803   1.472       .  S
C372        C780   1.471       .  S
C373       C1123   1.459       .  S
C374       C1033   1.449       .  S
H375        O376   0.963       .  S
H377        O378   0.964       .  S
O379        C390   1.281       .  A
O379       Eu415   2.414       .  S
O380        C391   1.274       .  A
O380       Eu414   2.412       .  S
O381        C392   1.356       .  A
O381       Eu387   2.795       .  S
O382        C393   1.349       .  A
O382       Eu387   2.800       .  S
O383        C393   1.278       .  A
O383       Eu417   2.393       .  S
O384        C392   1.279       .  A
O384       Eu416   2.369       .  S
O385        C391   1.277       .  A
O385       Eu387   2.376       .  S
O386        C390   1.281       .  A
O386       Eu387   2.373       .  S
Eu387       O397   2.393       .  S
Eu387       O389   2.329       .  S
Eu387       O388   2.352       .  S
Eu387       O395   2.334       .  S
O388       Eu417   2.365       .  S
O388       Eu414   2.371       .  S
O389       Eu415   2.398       .  S
O389       Eu416   2.400       .  S
C390       C1293   1.439       .  S
C391        C740   1.442       .  S
C392       C1163   1.573       .  S
C393       C1173   1.596       .  S
H394        O395   0.965       .  S
O395       Eu416   2.393       .  S
O395       Eu414   2.353       .  S
H396        O397   0.964       .  S
O397       Eu415   2.431       .  S
O397       Eu417   2.351       .  S
O398        C421   1.275       .  A
O398       Eu414   2.385       .  S
O399        C422   1.285       .  A
O399       Eu415   2.443       .  S
O400        C423   1.297       .  A
O400       Eu416   2.523       .  S
O401        C424   1.253       .  A
O401       Eu417   2.327       .  S
O402        C425   1.263       .  A
O402       Eu417   2.426       .  S
O403        C426   1.269       .  A
O403       Eu416   2.446       .  S
O404        C427   1.288       .  A
O404       Eu418   2.452       .  S
O405        C428   1.290       .  A
O405       Eu418   2.449       .  S
O406        C427   1.289       .  A
O406       Eu416   2.443       .  S
O407        C428   1.277       .  A
O407       Eu417   2.383       .  S
O408        C423   1.272       .  A
O408       Eu414   2.408       .  S
O409        C426   1.271       .  A
O409       Eu415   2.415       .  S
O410        C425   1.266       .  A
O410       Eu415   2.421       .  S
O411        C424   1.260       .  A
O411       Eu414   2.417       .  S
O412        C421   1.318       .  A
O412       Eu418   2.607       .  S
O413        C422   1.336       .  A
O413       Eu418   2.699       .  S
Eu414       O432   2.424       .  S
Eu414       O420   2.324       .  S
Eu415       O419   2.401       .  S
Eu415       O430   2.376       .  S
Eu416       O430   2.378       .  S
Eu416       O420   2.386       .  S
Eu417       O419   2.304       .  S
Eu417       O432   2.372       .  S
Eu418       O419   2.372       .  S
Eu418       O430   2.336       .  S
Eu418       O432   2.402       .  S
Eu418       O420   2.444       .  S
C421        C730   1.502       .  S
C422        C720   1.555       .  S
C423        C843   1.489       .  S
C424        C933   1.461       .  S
C425        C753   1.450       .  S
C426        C800   1.451       .  S
C427       C1023   1.461       .  S
C428        C760   1.446       .  S
H429        O430   0.934       .  S
H431        O432   0.967       .  S
O433        C444   1.304       .  A
O433       Eu469   2.545       .  S
O434        C445   1.276       .  A
O434       Eu468   2.394       .  S
O435        C446   1.286   1_655  A
O435       Eu441   2.466       .  S
O436        C447   1.275       .  A
O436       Eu441   2.364       .  S
O437        C447   1.289       .  A
O437       Eu471   2.448       .  S
O438        C446   1.293       .  A
O438       Eu470   2.517       .  S
O439        C445   1.283       .  A
O439       Eu441   2.411       .  S
O440        C444   1.271       .  A
O440       Eu441   2.376       .  S
Eu441       O451   2.355       .  S
Eu441       O443   2.330       .  S
Eu441       O442   2.311       .  S
Eu441       O449   2.306       .  S
O442       Eu471   2.371       .  S
O442       Eu468   2.391       .  S
O443       Eu469   2.352       .  S
O443       Eu470   2.378   1_655  S
C444       C1313   1.480       .  S
C445       C1103   1.440       .  S
C446        C693   1.518       .  S
C447        C713   1.454       .  S
H448        O449   0.964       .  S
O449       Eu470   2.366   1_655  S
O449       Eu468   2.434       .  S
H450        O451   0.964       .  S
O451       Eu469   2.354       .  S
O451       Eu471   2.395       .  S
O452        C475   1.276       .  A
O452       Eu468   2.452       .  S
O453        C476   1.318       .  A
O453       Eu469   2.610       .  S
O454        C477   1.268       .  A
O454       Eu470   2.444       .  S
O455        C478   1.334       .  A
O455       Eu471   2.694       .  S
O456        C479   1.328       .  A
O456       Eu471   2.666       .  S
O457        C480   1.260       .  A
O457       Eu470   2.416       .  S
O458        C481   1.325       .  A
O458       Eu472   2.665   1_455  S
O459        C482   1.299       .  A
O459       Eu472   2.491       .  S
O460        C481   1.280       .  A
O460       Eu470   2.411       .  S
O461        C482   1.291       .  A
O461       Eu471   2.422       .  S
O462        C477   1.267   1_655  A
O462       Eu468   2.417       .  S
O463        C480   1.257       .  A
O463       Eu469   2.417   1_455  S
O464        C479   1.296       .  A
O464       Eu469   2.501       .  S
O465        C478   1.276       .  A
O465       Eu468   2.367       .  S
O466        C475   1.269       .  A
O466       Eu472   2.414       .  S
O467        C476   1.267       .  A
O467       Eu472   2.311       .  S
Eu468       O486   2.328       .  S
Eu468       O474   2.417   1_655  S
Eu469       O473   2.350       .  S
Eu469       O484   2.383   1_655  S
Eu470       O484   2.422       .  S
Eu470       O474   2.329       .  S
Eu471       O473   2.422       .  S
Eu471       O486   2.370       .  S
Eu472       O473   2.435       .  S
Eu472       O484   2.371   1_655  S
Eu472       O486   2.371       .  S
Eu472       O474   2.360   1_655  S
C475        C790   1.446   1_655  S
C476        C680   1.487   1_655  S
C477       C1213   1.432       .  S
C478        C813   1.540       .  S
C479        C823   1.569       .  S
C480        C750   1.446       .  S
C481       C1243   1.545       .  S
C482        C703   1.468       .  S
H483        O484   0.961       .  S
H485        O486   0.963       .  S
O487        C498   1.284       .  A
O487       Eu523   2.437       .  S
O488        C499   1.280       .  A
O488       Eu522   2.386       .  S
O489        C500   1.274       .  A
O489       Eu495   2.387   1_545  S
O490        C501   1.285       .  A
O490       Eu495   2.391       .  S
O491        C501   1.297       .  A
O491       Eu525   2.492       .  S
O492        C500   1.280       .  A
O492       Eu524   2.475   1_545  S
O493        C499   1.296       .  A
O493       Eu495   2.501       .  S
O494        C498   1.303       .  A
O494       Eu495   2.555       .  S
Eu495       O505   2.368       .  S
Eu495       O497   2.275       .  S
Eu495       O496   2.342       .  S
Eu495       O503   2.388       .  S
O496       Eu525   2.370       .  S
O496       Eu522   2.334       .  S
O497       Eu523   2.357       .  S
O497       Eu524   2.351       .  S
C498       C1300   1.505   1_565  S
C499       C1063   1.468       .  S
C500        C660   1.444       .  S
C501        C670   1.449       .  S
H502        O503   0.963       .  S
O503       Eu524   2.355       .  S
O503       Eu522   2.381       .  S
H504        O505   0.962       .  S
O505       Eu523   2.316       .  S
O505       Eu525   2.423       .  S
O506        C529   1.306       .  A
O506       Eu522   2.565       .  S
O507        C530   1.282       .  A
O507       Eu523   2.396       .  S
O508        C531   1.319       .  A
O508       Eu524   2.606       .  S
O509        C532   1.294       .  A
O509       Eu525   2.458       .  S
O510        C533   1.299       .  A
O510       Eu525   2.498       .  S
O511        C534   1.303       .  A
O511       Eu524   2.501       .  S
O512        C535   1.261       .  A
O512       Eu526   2.477       .  S
O513        C536   1.239       .  A
O513       Eu526   2.373       .  S
O514        C535   1.258       .  A
O514       Eu524   2.396       .  S
O515        C536   1.322       .  A
O515       Eu525   2.692       .  S
O516        C531   1.278       .  A
O516       Eu522   2.376       .  S
O517        C534   1.301       .  A
O517       Eu523   2.502       .  S
O518        C533   1.325       .  A
O518       Eu523   2.661       .  S
O519        C532   1.290       .  A
O519       Eu522   2.447       .  S
O520        C529   1.285       .  A
O520       Eu526   2.441       .  S
O521        C530   1.285       .  A
O521       Eu526   2.487       .  S
Eu522       O540   2.316       .  S
Eu522       O528   2.285       .  S
Eu523       O527   2.370       .  S
Eu523       O538   2.403       .  S
Eu524       O538   2.429       .  S
Eu524       O528   2.320       .  S
Eu525       O527   2.326       .  S
Eu525       O540   2.365       .  S
Eu526       O527   2.382       .  S
Eu526       O538   2.399       .  S
Eu526       O540   2.423       .  S
Eu526       O528   2.342       .  S
C529        C733   1.517       .  S
C530        C783   1.439       .  S
C531        C943   1.507       .  S
C532        C700   1.460       .  S
C533        C723   1.573       .  S
C534       C1053   1.491       .  S
C535       C1003   1.427       .  S
C536        C853   1.516       .  S
H537        O538   0.965       .  S
H539        O540   0.970       .  S
O541        C552   1.287       .  A
O541       Eu577   2.534       .  S
O542        C553   1.300   1_455  A
O542       Eu576   2.496   1_545  S
O543        C554   1.293   1_545  A
O543       Eu549   2.486       .  S
O544        C555   1.296       .  A
O544       Eu549   2.483       .  S
O545        C555   1.304       .  A
O545       Eu579   2.531       .  S
O546        C554   1.271       .  A
O546       Eu578   2.391       .  S
O547        C553   1.280   1_455  A
O547       Eu549   2.377       .  S
O548        C552   1.247       .  A
O548       Eu549   2.441       .  S
Eu549       O559   2.354       .  S
Eu549       O551   2.377       .  S
Eu549       O550   2.292       .  S
Eu549       O557   2.403   1_545  S
O550       Eu579   2.372       .  S
O550       Eu576   2.350   1_545  S
O551       Eu577   2.349       .  S
O551       Eu578   2.268   1_545  S
C552       C1320   1.481       .  S
C553       C1093   1.455       .  S
C554        C673   1.464       .  S
C555        C690   1.509       .  S
H556        O557   0.959       .  S
O557       Eu578   2.364       .  S
O557       Eu576   2.293       .  S
H558        O559   0.963       .  S
O559       Eu577   2.379       .  S
O559       Eu579   2.330       .  S
O560        C583   1.263       .  A
O560       Eu576   2.413       .  S
O561        C584   1.291   1_545  A
O561       Eu577   2.451       .  S
O562        C585   1.268       .  A
O562       Eu578   2.354       .  S
O563        C586   1.253       .  A
O563       Eu579   2.408       .  S
O564        C587   1.283       .  A
O564       Eu579   2.427       .  S
O565        C588   1.292       .  A
O565       Eu578   2.496       .  S
O566        C589   1.272       .  A
O566       Eu580   2.395       .  S
O567        C590   1.288   1_565  A
O567       Eu580   2.467       .  S
O568        C589   1.279       .  A
O568       Eu578   2.399       .  S
O569        C590   1.304       .  A
O569       Eu579   2.588       .  S
O570        C585   1.317       .  A
O570       Eu576   2.619       .  S
O571        C588   1.294       .  A
O571       Eu577   2.473   1_565  S
O572        C587   1.280       .  A
O572       Eu577   2.364       .  S
O573        C586   1.295       .  A
O573       Eu576   2.587   1_545  S
O574        C583   1.268       .  A
O574       Eu580   2.428       .  S
O575        C584   1.289       .  A
O575       Eu580   2.436       .  S
Eu576       O594   2.416       .  S
Eu576       O582   2.373       .  S
Eu577       O581   2.411       .  S
Eu577       O592   2.375   1_545  S
Eu578       O592   2.336       .  S
Eu578       O582   2.354       .  S
Eu579       O581   2.379       .  S
Eu579       O594   2.412   1_545  S
Eu580       O581   2.303   1_565  S
Eu580       O592   2.404       .  S
Eu580       O594   2.394       .  S
Eu580       O582   2.386       .  S
C583        C770   1.466       .  S
C584        C913   1.464       .  S
C585        C683   1.518       .  S
C586       C1193   1.500       .  S
C587        C650   1.429       .  S
C588        C993   1.509       .  S
C589        C763   1.428       .  S
C590        C983   1.541   1_545  S
H591        O592   0.967       .  S
H593        O594   0.963       .  S
O595        C606   1.321       .  A
O595       Eu631   2.634       .  S
O596        C607   1.281       .  A
O596       Eu630   2.363       .  S
O597        C608   1.262       .  A
O597       Eu603   2.414       .  S
O598        C609   1.279       .  A
O598       Eu603   2.381       .  S
O599        C609   1.288       .  A
O599       Eu633   2.406       .  S
O600        C608   1.275       .  A
O600       Eu632   2.458       .  S
O601        C607   1.278       .  A
O601       Eu603   2.387       .  S
O602        C606   1.279       .  A
O602       Eu603   2.383       .  S
Eu603       O613   2.350       .  S
Eu603       O605   2.335       .  S
Eu603       O604   2.284       .  S
Eu603       O611   2.364       .  S
O604       Eu633   2.306       .  S
O604       Eu630   2.327       .  S
O605       Eu631   2.346       .  S
O605       Eu632   2.375       .  S
C606       C1263   1.512       .  S
C607       C1203   1.430       .  S
C608        C653   1.470       .  S
C609        C743   1.441       .  S
H610        O611   0.959       .  S
O611       Eu632   2.336       .  S
O611       Eu630   2.337       .  S
H612        O613   0.966       .  S
O613       Eu631   2.339       .  S
O613       Eu633   2.316       .  S
O614        C637   1.260       .  A
O614       Eu630   2.360       .  S
O615        C638   1.313       .  A
O615       Eu631   2.580       .  S
O616        C639   1.271       .  A
O616       Eu632   2.364       .  S
O617        C640   1.293       .  A
O617       Eu633   2.463       .  S
O618        C641   1.304       .  A
O618       Eu633   2.540       .  S
O619        C642   1.275       .  A
O619       Eu632   2.378       .  S
O620        C643   1.272       .  A
O620       Eu634   2.436       .  S
O621        C644   1.294       .  A
O621       Eu634   2.455       .  S
O622        C643   1.272       .  A
O622       Eu632   2.392       .  S
O623        C644   1.278       .  A
O623       Eu633   2.371       .  S
O624        C639   1.325       .  A
O624       Eu630   2.660       .  S
O625        C642   1.285       .  A
O625       Eu631   2.377       .  S
O626        C641   1.275       .  A
O626       Eu631   2.361       .  S
O627        C640   1.310       .  A
O627       Eu630   2.559       .  S
O628        C637   1.294       .  A
O628       Eu634   2.504       .  S
O629        C638   1.283       .  A
O629       Eu634   2.382       .  S
Eu630       O648   2.377       .  S
Eu630       O636   2.314       .  S
Eu631       O635   2.348       .  S
Eu631       O646   2.357       .  S
Eu632       O646   2.375       .  S
Eu632       O636   2.380       .  S
Eu633       O635   2.295       .  S
Eu633       O648   2.343       .  S
Eu634       O635   2.356       .  S
Eu634       O646   2.381       .  S
Eu634       O648   2.308       .  S
Eu634       O636   2.339       .  S
C637       C1113   1.441       .  S
C638       C1253   1.483       .  S
C639        C883   1.524       .  S
C640        C873   1.503       .  S
C641        C833   1.468       .  S
C642       C1013   1.431       .  S
C643        C663   1.446       .  S
C644        C710   1.452       .  S
H645        O646   0.962       .  S
H647        O648   0.963       .  S
C649        C650   1.406       .  A
C649        C654   1.399       .  A
C649        H655   1.084       .  S
C650        C651   1.405       .  A
C651        C652   1.400       .  A
C651        H656   1.084       .  S
C652        C653   1.409       .  A
C652        H657   1.082       .  S
C653        C654   1.413       .  A
C654        H658   1.083       .  S
C659        C660   1.395       .  A
C659        C664   1.379       .  A
C659        H665   1.082       .  S
C660        C661   1.402       .  A
C661        C662   1.383       .  A
C661        H666   1.083       .  S
C662        C663   1.396       .  A
C662        H667   1.083       .  S
C663        C664   1.403       .  A
C664        H668   1.080       .  S
C669        C670   1.398       .  A
C669        C674   1.381       .  A
C669        H675   1.085       .  S
C670        C671   1.402       .  A
C671        C672   1.399   1_655  A
C671        H676   1.078       .  S
C672        C673   1.404       .  A
C672        H677   1.083       .  S
C673        C674   1.402   1_455  A
C674        H678   1.079       .  S
C679        C680   1.398       .  A
C679        C684   1.404       .  A
C679        H685   1.083       .  S
C680        C681   1.423   1_455  A
C681        C682   1.423       .  A
C681        H686   1.082       .  S
C682        C683   1.403   1_655  A
C682        H687   1.082       .  S
C683        C684   1.421       .  A
C684        H688   1.081       .  S
C689        C690   1.407       .  A
C689        C694   1.409       .  A
C689        H695   1.081       .  S
C690        C691   1.409       .  A
C691        C692   1.418       .  A
C691        H696   1.083       .  S
C692        C693   1.412       .  A
C692        H697   1.081       .  S
C693        C694   1.412       .  A
C694        H698   1.083   1_455  S
C699        C700   1.396       .  A
C699        C704   1.394       .  A
C699        H705   1.078       .  S
C700        C701   1.405       .  A
C701        C702   1.392       .  A
C701        H706   1.084       .  S
C702        C703   1.396       .  A
C702        H707   1.081       .  S
C703        C704   1.409       .  A
C704        H708   1.084       .  S
C709        C710   1.411       .  A
C709        C714   1.387       .  A
C709        H715   1.083       .  S
C710        C711   1.392       .  A
C711        C712   1.377       .  A
C711        H716   1.084       .  S
C712        C713   1.411       .  A
C712        H717   1.083       .  S
C713        C714   1.395       .  A
C714        H718   1.083       .  S
C719        C720   1.415       .  A
C719        C724   1.428   1_455  A
C719        H725   1.083       .  S
C720        C721   1.428       .  A
C721        C722   1.445   1_455  A
C721        H726   1.083       .  S
C722        C723   1.422       .  A
C722        H727   1.081       .  S
C723        C724   1.426       .  A
C724        H728   1.083       .  S
C729        C730   1.397       .  A
C729        C734   1.400       .  A
C729        H735   1.075       .  S
C730        C731   1.419       .  A
C731        C732   1.427       .  A
C731        H736   1.083       .  S
C732        C733   1.410       .  A
C732        H737   1.079       .  S
C733        C734   1.411       .  A
C734        H738   1.083       .  S
C739        C740   1.406       .  A
C739        C744   1.381       .  A
C739        H745   1.083       .  S
C740        C741   1.403       .  A
C741        C742   1.381       .  A
C741        H746   1.083       .  S
C742        C743   1.398       .  A
C742        H747   1.084       .  S
C743        C744   1.398       .  A
C744        H748   1.084       .  S
C749        C750   1.395       .  A
C749        C754   1.382       .  A
C749        H755   1.083       .  S
C750        C751   1.401       .  A
C751        C752   1.386       .  A
C751        H756   1.078       .  S
C752        C753   1.398       .  A
C752        H757   1.082       .  S
C753        C754   1.403       .  A
C754        H758   1.082       .  S
C759        C760   1.407       .  A
C759        C764   1.387       .  A
C759        H765   1.082       .  S
C760        C761   1.399       .  A
C761        C762   1.386       .  A
C761        H766   1.084       .  S
C762        C763   1.400       .  A
C762        H767   1.085       .  S
C763        C764   1.396       .  A
C764        H768   1.084       .  S
C769        C770   1.403       .  A
C769        C774   1.389       .  A
C769        H775   1.083       .  S
C770        C771   1.403       .  A
C771        C772   1.392       .  A
C771        H776   1.082       .  S
C772        C773   1.404       .  A
C772        H777   1.084   1_556  S
C773        C774   1.401       .  A
C774        H778   1.082   1_455  S
C779        C780   1.399       .  A
C779        C784   1.398       .  A
C779        H785   1.083       .  S
C780        C781   1.415       .  A
C781        C782   1.383       .  A
C781        H786   1.083       .  S
C782        C783   1.391       .  A
C782        H787   1.084       .  S
C783        C784   1.408       .  A
C784        H788   1.084       .  S
C789        C790   1.413       .  A
C789        C794   1.396       .  A
C789        H795   1.082       .  S
C790        C791   1.407       .  A
C791        C792   1.389       .  A
C791        H796   1.079   1_455  S
C792        C793   1.397       .  A
C792        H797   1.080   1_556  S
C793        C794   1.397       .  A
C794        H798   1.078       .  S
C799        C800   1.404       .  A
C799        C804   1.398       .  A
C799        H805   1.083       .  S
C800        C801   1.415       .  A
C801        C802   1.386       .  A
C801        H806   1.074       .  S
C802        C803   1.388       .  A
C802        H807   1.084       .  S
C803        C804   1.406       .  A
C804        H808   1.083       .  S
C809        C810   1.407       .  A
C809        C814   1.416   1_554  A
C809        H815   1.083       .  S
C810        C811   1.426       .  A
C811        C812   1.438   1_554  A
C811        H816   1.083       .  S
C812        C813   1.417       .  A
C812        H817   1.081       .  S
C813        C814   1.423       .  A
C814        H818   1.083       .  S
C819        C820   1.422       .  A
C819        C824   1.444       .  A
C819        H825   1.082       .  S
C820        C821   1.429       .  A
C821        C822   1.437       .  A
C821        H826   1.082       .  S
C822        C823   1.418       .  A
C822        H827   1.083       .  S
C823        C824   1.428       .  A
C824        H828   1.082       .  S
C829        C830   1.403       .  A
C829        C834   1.402       .  A
C829        H835   1.071       .  S
C830        C831   1.413       .  A
C831        C832   1.397       .  A
C831        H836   1.084       .  S
C832        C833   1.400       .  A
C832        H837   1.083       .  S
C833        C834   1.405       .  A
C834        H838   1.083       .  S
C839        C840   1.403       .  A
C839        C844   1.411       .  A
C839        H845   1.073       .  S
C840        C841   1.415       .  A
C841        C842   1.400       .  A
C841        H846   1.084       .  S
C842        C843   1.404       .  A
C842        H847   1.083       .  S
C843        C844   1.411       .  A
C844        H848   1.083       .  S
C849        C850   1.381       .  A
C849        C854   1.378       .  A
C849        H855   1.086       .  S
C850        C851   1.420       .  A
C851        C852   1.429       .  A
C851        H856   1.080       .  S
C852        C853   1.406       .  A
C852        H857   1.077       .  S
C853        C854   1.414       .  A
C854        H858   1.049       .  S
C859        C860   1.406       .  A
C859        C864   1.398       .  A
C859        H865   1.083       .  S
C860        C861   1.417       .  A
C861        C862   1.387       .  A
C861        H866   1.082       .  S
C862        C863   1.391       .  A
C862        H867   1.084       .  S
C863        C864   1.410       .  A
C864        H868   1.083       .  S
C869        C870   1.413       .  A
C869        C874   1.411       .  A
C869        H875   1.083       .  S
C870        C871   1.410       .  A
C871        C872   1.417       .  A
C871        H876   1.083       .  S
C872        C873   1.412       .  A
C872        H877   1.083       .  S
C873        C874   1.407       .  A
C874        H878   1.084       .  S
C879        C880   1.428       .  A
C879        C884   1.425   1_565  A
C879        H885   1.081       .  S
C880        C881   1.399       .  A
C881        C882   1.415   1_565  A
C881        H886   1.083       .  S
C882        C883   1.421       .  A
C882        H887   1.074       .  S
C883        C884   1.405       .  A
C884        H888   1.081       .  S
C889        C890   1.427       .  A
C889        C894   1.447       .  A
C889        H895   1.081       .  S
C890        C891   1.409       .  A
C891        C892   1.413       .  A
C891        H896   1.084       .  S
C892        C893   1.421       .  A
C892        H897   1.083   1_556  S
C893        C894   1.424       .  A
C894        H898   1.082       .  S
C899        C900   1.433       .  A
C899        C904   1.450       .  A
C899        H905   1.082       .  S
C900        C901   1.410   1_556  A
C901        C902   1.430       .  A
C901        H906   1.083       .  S
C902        C903   1.435   1_554  A
C902        H907   1.082       .  S
C903        C904   1.422       .  A
C904        H908   1.082       .  S
C909        C910   1.393       .  A
C909        C914   1.393       .  A
C909        H915   1.083       .  S
C910        C911   1.407       .  A
C911        C912   1.395       .  A
C911        H916   1.081       .  S
C912        C913   1.397       .  A
C912        H917   1.084       .  S
C913        C914   1.409       .  A
C914        H918   1.084   1_565  S
C919        C920   1.412       .  A
C919        C924   1.406       .  A
C919        H925   1.083       .  S
C920        C921   1.413       .  A
C921        C922   1.404       .  A
C921        H926   1.079       .  S
C922        C923   1.408       .  A
C922        H927   1.083       .  S
C923        C924   1.409       .  A
C924        H928   1.083       .  S
C929        C930   1.411       .  A
C929        C934   1.375       .  A
C929        H935   1.061       .  S
C930        C931   1.397       .  A
C931        C932   1.408       .  A
C931        H936   1.070       .  S
C932        C933   1.404       .  A
C932        H937   1.076       .  S
C933        C934   1.383       .  A
C934        H938   1.085       .  S
C939        C940   1.411       .  A
C939        C944   1.424       .  A
C939        H945   1.078       .  S
C940        C941   1.405       .  A
C941        C942   1.411       .  A
C941        H946   1.079       .  S
C942        C943   1.414       .  A
C942        H947   1.081       .  S
C943        C944   1.414       .  A
C944        H948   1.083       .  S
C949        C950   1.394       .  A
C949        C954   1.390       .  A
C949        H955   1.083       .  S
C950        C951   1.417       .  A
C951        C952   1.414       .  A
C951        H956   1.083       .  S
C952        C953   1.403       .  A
C952        H957   1.083       .  S
C953        C954   1.405       .  A
C954        H958   1.071       .  S
C959        C960   1.438       .  A
C959        C964   1.430       .  A
C959        H965   1.083       .  S
C960        C961   1.403       .  A
C961        C962   1.429       .  A
C961        H966   1.083       .  S
C962        C963   1.440       .  A
C962        H967   1.082       .  S
C963        C964   1.406       .  A
C964        H968   1.083       .  S
C969        C970   1.422       .  A
C969        C974   1.426       .  A
C969        H975   1.080       .  S
C970        C971   1.428       .  A
C971        C972   1.451       .  A
C971        H976   1.082       .  S
C972        C973   1.428       .  A
C972        H977   1.082       .  S
C973        C974   1.416       .  A
C974        H978   1.083       .  S
C979        C980   1.408   1_545  A
C979        C984   1.418       .  A
C979        H985   1.082       .  S
C980        C981   1.416       .  A
C981        C982   1.416       .  A
C981        H986   1.083       .  S
C982        C983   1.415   1_554  A
C982        H987   1.083   1_554  S
C983        C984   1.417   1_566  A
C984        H988   1.066       .  S
C989        C990   1.419       .  A
C989        C994   1.400       .  A
C989        H995   1.081       .  S
C990        C991   1.410       .  A
C991        C992   1.423       .  A
C991        H996   1.083       .  S
C992        C993   1.419       .  A
C992        H997   1.083       .  S
C993        C994   1.399       .  A
C994        H998   1.083       .  S
C999       C1000   1.401       .  A
C999       C1004   1.384       .  A
C999       H1005   1.080       .  S
C1000      C1001   1.397       .  A
C1001      C1002   1.385       .  A
C1001      H1006   1.079       .  S
C1002      C1003   1.398       .  A
C1002      H1007   1.084       .  S
C1003      C1004   1.391       .  A
C1004      H1008   1.082       .  S
C1009      C1010   1.403       .  A
C1009      C1014   1.396       .  A
C1009      H1015   1.083       .  S
C1010      C1011   1.412       .  A
C1011      C1012   1.392       .  A
C1011      H1016   1.085       .  S
C1012      C1013   1.395       .  A
C1012      H1017   1.085       .  S
C1013      C1014   1.401       .  A
C1014      H1018   1.083       .  S
C1019      C1020   1.405       .  A
C1019      C1024   1.387       .  A
C1019      H1025   1.084       .  S
C1020      C1021   1.403       .  A
C1021      C1022   1.391       .  A
C1021      H1026   1.084       .  S
C1022      C1023   1.406       .  A
C1022      H1027   1.083       .  S
C1023      C1024   1.402       .  A
C1024      H1028   1.083       .  S
C1029      C1030   1.404       .  A
C1029      C1034   1.387       .  A
C1029      H1035   1.083       .  S
C1030      C1031   1.394       .  A
C1031      C1032   1.381       .  A
C1031      H1036   1.072       .  S
C1032      C1033   1.403       .  A
C1032      H1037   1.084       .  S
C1033      C1034   1.402       .  A
C1034      H1038   1.083       .  S
C1039      C1040   1.407       .  A
C1039      C1044   1.371       .  A
C1039      H1045   1.078       .  S
C1040      C1041   1.393       .  A
C1041      C1042   1.372       .  A
C1041      H1046   1.084       .  S
C1042      C1043   1.398       .  A
C1042      H1047   1.083   1_554  S
C1043      C1044   1.387       .  A
C1044      H1048   1.084       .  S
C1049      C1050   1.409       .  A
C1049      C1054   1.414       .  A
C1049      H1055   1.083       .  S
C1050      C1051   1.408   1_545  A
C1051      C1052   1.400       .  A
C1051      H1056   1.084       .  S
C1052      C1053   1.403       .  A
C1052      H1057   1.084       .  S
C1053      C1054   1.409   1_565  A
C1054      H1058   1.083       .  S
C1059      C1060   1.410       .  A
C1059      C1064   1.405       .  A
C1059      H1065   1.083       .  S
C1060      C1061   1.405   1_545  A
C1061      C1062   1.382       .  A
C1061      H1066   1.083       .  S
C1062      C1063   1.401       .  A
C1062      H1067   1.084       .  S
C1063      C1064   1.399   1_565  A
C1064      H1068   1.078       .  S
C1069      C1070   1.407   1_545  A
C1069      C1074   1.395   1_556  A
C1069      H1075   1.083       .  S
C1070      C1071   1.398   1_556  A
C1071      C1072   1.391       .  A
C1071      H1076   1.084       .  S
C1072      C1073   1.403   1_565  A
C1072      H1077   1.084       .  S
C1073      C1074   1.397       .  A
C1074      H1078   1.083       .  S
C1079      C1080   1.397       .  A
C1079      C1084   1.392       .  A
C1079      H1085   1.084       .  S
C1080      C1081   1.409       .  A
C1081      C1082   1.403       .  A
C1081      H1086   1.083       .  S
C1082      C1083   1.402       .  A
C1082      H1087   1.083       .  S
C1083      C1084   1.407       .  A
C1084      H1088   1.084       .  S
C1089      C1090   1.406       .  A
C1089      C1094   1.387       .  A
C1089      H1095   1.084       .  S
C1090      C1091   1.396       .  A
C1091      C1092   1.393       .  A
C1091      H1096   1.084       .  S
C1092      C1093   1.406       .  A
C1092      H1097   1.082       .  S
C1093      C1094   1.395       .  A
C1094      H1098   1.084   1_545  S
C1099      C1100   1.398       .  A
C1099      C1104   1.374       .  A
C1099      H1105   1.078       .  S
C1100      C1101   1.406       .  A
C1101      C1102   1.388       .  A
C1101      H1106   1.083   1_556  S
C1102      C1103   1.397       .  A
C1102      H1107   1.083       .  S
C1103      C1104   1.398       .  A
C1104      H1108   1.085       .  S
C1109      C1110   1.399       .  A
C1109      C1114   1.390       .  A
C1109      H1115   1.082       .  S
C1110      C1111   1.399       .  A
C1111      C1112   1.393       .  A
C1111      H1116   1.084       .  S
C1112      C1113   1.406       .  A
C1112      H1117   1.082       .  S
C1113      C1114   1.395       .  A
C1114      H1118   1.082       .  S
C1119      C1120   1.400       .  A
C1119      C1124   1.406       .  A
C1119      H1125   1.080   1_565  S
C1120      C1121   1.383       .  A
C1121      C1122   1.385       .  A
C1121      H1126   1.056       .  S
C1122      C1123   1.375       .  A
C1122      H1127   1.081       .  S
C1123      C1124   1.421       .  A
C1124      H1128   1.084       .  S
C1129      C1130   1.415       .  A
C1129      C1134   1.406       .  A
C1129      H1135   1.083       .  S
C1130      C1131   1.410       .  A
C1131      C1132   1.405       .  A
C1131      H1136   1.077   1_556  S
C1132      C1133   1.406       .  A
C1132      H1137   1.082       .  S
C1133      C1134   1.409       .  A
C1134      H1138   1.083       .  S
C1139      C1140   1.405   1_556  A
C1139      C1144   1.384       .  A
C1139      H1145   1.079       .  S
C1140      C1141   1.409       .  A
C1141      C1142   1.411       .  A
C1141      H1146   1.083       .  S
C1142      C1143   1.406   1_554  A
C1142      H1147   1.083       .  S
C1143      C1144   1.398       .  A
C1144      H1148   1.084   1_455  S
C1149      C1150   1.397       .  A
C1149      C1154   1.410       .  A
C1149      H1155   1.071       .  S
C1150      C1151   1.412       .  A
C1151      C1152   1.410       .  A
C1151      H1156   1.083       .  S
C1152      C1153   1.415       .  A
C1152      H1157   1.083       .  S
C1153      C1154   1.407       .  A
C1154      H1158   1.082       .  S
C1159      C1160   1.424       .  A
C1159      C1164   1.457       .  A
C1159      H1165   1.079       .  S
C1160      C1161   1.435       .  A
C1161      C1162   1.434       .  A
C1161      H1166   1.083       .  S
C1162      C1163   1.414       .  A
C1162      H1167   1.083       .  S
C1163      C1164   1.438       .  A
C1164      H1168   1.083       .  S
C1169      C1170   1.436       .  A
C1169      C1174   1.460       .  A
C1169      H1175   1.082       .  S
C1170      C1171   1.421       .  A
C1171      C1172   1.440       .  A
C1171      H1176   1.080       .  S
C1172      C1173   1.421       .  A
C1172      H1177   1.071       .  S
C1173      C1174   1.429       .  A
C1174      H1178   1.076       .  S
C1179      C1180   1.400       .  A
C1179      C1184   1.383       .  A
C1179      H1185   1.081       .  S
C1180      C1181   1.408   1_554  A
C1181      C1182   1.409   1_556  A
C1181      H1186   1.083       .  S
C1182      C1183   1.406       .  A
C1182      H1187   1.083       .  S
C1183      C1184   1.394       .  A
C1184      H1188   1.085       .  S
C1189      C1190   1.407       .  A
C1189      C1194   1.423       .  A
C1189      H1195   1.081       .  S
C1190      C1191   1.407       .  A
C1191      C1192   1.419       .  A
C1191      H1196   1.077       .  S
C1192      C1193   1.391       .  A
C1192      H1197   1.080       .  S
C1193      C1194   1.423       .  A
C1194      H1198   1.083       .  S
C1199      C1200   1.387       .  A
C1199      C1204   1.367       .  A
C1199      H1205   1.078       .  S
C1200      C1201   1.400       .  A
C1201      C1202   1.367       .  A
C1201      H1206   1.080       .  S
C1202      C1203   1.392       .  A
C1202      H1207   1.084       .  S
C1203      C1204   1.405       .  A
C1204      H1208   1.082       .  S
C1209      C1210   1.399       .  A
C1209      C1214   1.385       .  A
C1209      H1215   1.079       .  S
C1210      C1211   1.388       .  A
C1211      C1212   1.367       .  A
C1211      H1216   1.081       .  S
C1212      C1213   1.399       .  A
C1212      H1217   1.080       .  S
C1213      C1214   1.399       .  A
C1214      H1218   1.083       .  S
C1219      C1220   1.414       .  A
C1219      C1224   1.391       .  A
C1219      H1225   1.083       .  S
C1220      C1221   1.406       .  A
C1221      C1222   1.398       .  A
C1221      H1226   1.081       .  S
C1222      C1223   1.406       .  A
C1222      H1227   1.083       .  S
C1223      C1224   1.394       .  A
C1224      H1228   1.083       .  S
C1229      C1230   1.407       .  A
C1229      C1234   1.389       .  A
C1229      H1235   1.084       .  S
C1230      C1231   1.399       .  A
C1231      C1232   1.385       .  A
C1231      H1236   1.083       .  S
C1232      C1233   1.405       .  A
C1232      H1237   1.083       .  S
C1233      C1234   1.400       .  A
C1234      H1238   1.083       .  S
C1239      C1240   1.410       .  A
C1239      C1244   1.424       .  A
C1239      H1245   1.081       .  S
C1240      C1241   1.424       .  A
C1241      C1242   1.431       .  A
C1241      H1246   1.082       .  S
C1242      C1243   1.412       .  A
C1242      H1247   1.075       .  S
C1243      C1244   1.420       .  A
C1244      H1248   1.080       .  S
C1249      C1250   1.409       .  A
C1249      C1254   1.397       .  A
C1249      H1255   1.083       .  S
C1250      C1251   1.411       .  A
C1251      C1252   1.417       .  A
C1251      H1256   1.081       .  S
C1252      C1253   1.406       .  A
C1252      H1257   1.082       .  S
C1253      C1254   1.406       .  A
C1254      H1258   1.084       .  S
C1259      C1260   1.416       .  A
C1259      C1264   1.433       .  A
C1259      H1265   1.082       .  S
C1260      C1261   1.418       .  A
C1261      C1262   1.403       .  A
C1261      H1266   1.082       .  S
C1262      C1263   1.402       .  A
C1262      H1267   1.084       .  S
C1263      C1264   1.421       .  A
C1264      H1268   1.083       .  S
C1269      C1270   1.424   1_665  A
C1269      C1274   1.433       .  A
C1269      H1275   1.082       .  S
C1270      C1271   1.410   1_545  A
C1271      C1272   1.414       .  A
C1271      H1276   1.083   1_565  S
C1272      C1273   1.419       .  A
C1272      H1277   1.083       .  S
C1273      C1274   1.415   1_455  A
C1274      H1278   1.081       .  S
C1279      C1280   1.430       .  A
C1279      C1284   1.437       .  A
C1279      H1285   1.082       .  S
C1280      C1281   1.418   1_455  A
C1281      C1282   1.439       .  A
C1281      H1286   1.082       .  S
C1282      C1283   1.429   1_655  A
C1282      H1287   1.081       .  S
C1283      C1284   1.415       .  A
C1284      H1288   1.083       .  S
C1289      C1290   1.396       .  A
C1289      C1294   1.385       .  A
C1289      H1295   1.081   1_455  S
C1290      C1291   1.388       .  A
C1291      C1292   1.368       .  A
C1291      H1296   1.075       .  S
C1292      C1293   1.401       .  A
C1292      H1297   1.084       .  S
C1293      C1294   1.401       .  A
C1294      H1298   1.082       .  S
C1299      C1300   1.407       .  A
C1299      C1304   1.416       .  A
C1299      H1305   1.077       .  S
C1300      C1301   1.407       .  A
C1301      C1302   1.406       .  A
C1301      H1306   1.078       .  S
C1302      C1303   1.411       .  A
C1302      H1307   1.084       .  S
C1303      C1304   1.412       .  A
C1304      H1308   1.083       .  S
C1309      C1310   1.410   1_655  A
C1309      C1314   1.394       .  A
C1309      H1315   1.083       .  S
C1310      C1311   1.407       .  A
C1311      C1312   1.414       .  A
C1311      H1316   1.083       .  S
C1312      C1313   1.411   1_455  A
C1312      H1317   1.082       .  S
C1313      C1314   1.403       .  A
C1314      H1318   1.084       .  S
C1319      C1320   1.416       .  A
C1319      C1324   1.382       .  A
C1319      H1325   1.082       .  S
C1320      C1321   1.400       .  A
C1321      C1322   1.405       .  A
C1321      H1326   1.081       .  S
C1322      C1323   1.419       .  A
C1322      H1327   1.084       .  S
C1323      C1324   1.390       .  A
C1324      H1328   1.084       .  S
C1329      C1330   1.404       .  A
C1329      C1334   1.395       .  A
C1329      H1335   1.081       .  S
C1330      C1331   1.394       .  A
C1331      C1332   1.381       .  A
C1331      H1336   1.085       .  S
C1332      C1333   1.395       .  A
C1332      H1337   1.081       .  S
C1333      C1334   1.397       .  A
C1334      H1338   1.083       .  S
C1339      C1340   1.402       .  A
C1339      C1344   1.390       .  A
C1339      H1345   1.084       .  S
C1340      C1341   1.396       .  A
C1341      C1342   1.388       .  A
C1341      H1346   1.077       .  S
C1342      C1343   1.404       .  A
C1342      H1347   1.083       .  S
C1343      C1344   1.404       .  A
C1344      H1348   1.083       .  S
C1349      C1350   1.403       .  A
C1349      C1354   1.386       .  A
C1349      H1355   1.081       .  S
C1350      C1351   1.401       .  A
C1351      C1352   1.388       .  A
C1351      H1356   1.084   1_655  S
C1352      C1353   1.404       .  A
C1352      H1357   1.081       .  S
C1353      C1354   1.396       .  A
C1354      H1358   1.084       .  S
C1359      C1360   1.402       .  A
C1359      C1364   1.381       .  A
C1359      H1365   1.084       .  S
C1360      C1361   1.401       .  A
C1361      C1362   1.387       .  A
C1361      H1366   1.084       .  S
C1362      C1363   1.403       .  A
C1362      H1367   1.082       .  S
C1363      C1364   1.398       .  A
C1364      H1368   1.084       .  S
