geometry optimzed in LAMMPS
_audit_creation_date              2020-12-01 
_audit_creation_method            'lammps2cif' 
_symmetry_space_group_name_H-M    'P1' 
_symmetry_Int_Tables_number       1 
_symmetry_cell_setting            triclinic 
loop_ 
_symmetry_equiv_pos_as_xyz 
  x,y,z 
_cell_length_a                    52.54962971 
_cell_length_b                    52.597216184800544 
_cell_length_c                    35.5096952980809 
_cell_angle_alpha                 90.11100816633447 
_cell_angle_beta                  90.13908177642192 
_cell_angle_gamma                 90.5642582134952 
loop_ 
_atom_site_label 
_atom_site_type_symbol 
_atom_site_fract_x 
_atom_site_fract_y 
_atom_site_fract_z 
_atom_site_charge 
N1          N  0.63741637  0.15094739  0.18035223    -0.27200
N2          N  0.66191059  0.15224579  0.17176392    -0.35000
C3          C  0.66606792  0.13761594  0.14127171     0.01200
C4          C  0.64310857  0.12690393  0.12998139     0.07200
C5          C  0.62542979  0.13583233  0.15534032    -0.05900
H6          H  0.68398185  0.13671475  0.12640336     0.07800
H7          H  0.60498321  0.13286846  0.15426625     0.09000
Cu8        Cu  0.68793571  0.17740648  0.19665062     0.44200
Cu9        Cu  0.61963351  0.17210516  0.22171474     0.42000
Cu10       Cu  0.65924408  0.21805759  0.26604321     0.43900
N11         N  0.70746271  0.20720920  0.22315218    -0.34600
N12         N  0.69660516  0.22149719  0.24908461    -0.28800
C13         C  0.71276199  0.24007765  0.25957987    -0.04900
C14         C  0.73490644  0.23773270  0.23909293     0.07300
C15         C  0.73099073  0.21661562  0.21622382     0.01100
H16         H  0.70809202  0.25502905  0.27925723     0.08700
H17         H  0.74379047  0.20931011  0.19509329     0.07800
N18         N  0.62103000  0.21433478  0.27798988    -0.36000
N19         N  0.60609777  0.19726537  0.26164898    -0.28200
C20         C  0.58252037  0.19918408  0.27597451    -0.03400
C21         C  0.58267958  0.21846852  0.30269719     0.05200
C22         C  0.60749217  0.22758421  0.30315163     0.03300
H23         H  0.56675392  0.18673496  0.26851694     0.08400
H24         H  0.61531623  0.24250149  0.32086616     0.07200
N25         N  0.58799779  0.20460525  0.76514429    -0.27200
N26         N  0.60281799  0.21932507  0.78612380    -0.35000
C27         C  0.61213405  0.20569948  0.81479903     0.01200
C28         C  0.60267921  0.18112518  0.81192056     0.07200
C29         C  0.58756675  0.18104535  0.77990490    -0.05900
H30         H  0.62511491  0.21313782  0.83578528     0.07800
H31         H  0.57661055  0.16520713  0.76863451     0.09000
Cu32       Cu  0.61089189  0.25693587  0.77450853     0.44200
Cu33       Cu  0.56879984  0.21810473  0.71841464     0.42000
Cu34       Cu  0.57969774  0.28551207  0.69597736     0.43900
N35         N  0.62139011  0.29189266  0.75312197    -0.34600
N36         N  0.61018255  0.30247964  0.72382599    -0.28800
C37         C  0.62354600  0.32333609  0.71376585    -0.04900
C38         C  0.64414249  0.32584200  0.73793742     0.07300
C39         C  0.64208715  0.30566384  0.76261239     0.01100
H40         H  0.61932918  0.33498393  0.68950562     0.08700
H41         H  0.65543351  0.30048733  0.78448639     0.07800
N42         N  0.55425811  0.26181558  0.66772139    -0.36000
N43         N  0.55111753  0.23730555  0.67489443    -0.28200
C44         C  0.53598108  0.22696995  0.64832614    -0.03400
C45         C  0.52904014  0.24586062  0.62342991     0.05200
C46         C  0.54094261  0.26771281  0.63663828     0.03300
H47         H  0.53119487  0.20689869  0.64646483     0.08400
H48         H  0.54148434  0.28611878  0.62308069     0.07200
C49         C  0.50268665  0.23870929  0.40949104     0.80300
N50         N  0.50826918  0.23645157  0.44666433    -0.78000
C51         C  0.48985027  0.23875498  0.47306368     0.82800
N52         N  0.46550784  0.24300745  0.46224500    -0.77900
C53         C  0.45955477  0.24455794  0.42508347     0.82900
N54         N  0.47818791  0.24260982  0.39879478    -0.79600
C55         C  0.62281259  0.09954830  0.91663470     0.80300
N56         N  0.62928903  0.07567984  0.90568625    -0.78000
C57         C  0.63457482  0.05766915  0.93195388     0.82800
N58         N  0.63405293  0.06375387  0.96918771    -0.77900
C59         C  0.62784488  0.08758220  0.98030198     0.82900
N60         N  0.62205989  0.10515722  0.95392172    -0.79600
N61         N  0.68563689  0.95219408  0.67310957    -0.27200
N62         N  0.70695068  0.94317930  0.68749101    -0.35000
C63         C  0.71066786  0.95364303  0.72161435     0.01200
C64         C  0.69063073  0.96984238  0.72944005     0.07200
C65         C  0.67525160  0.96848147  0.69775558    -0.05900
H66         H  0.72599032  0.94838026  0.74037715     0.07800
H67         H  0.65659436  0.97674996  0.69418753     0.09000
Cu68       Cu  0.72762675  0.91330505  0.66454943     0.44200
Cu69       Cu  0.66853369  0.93856577  0.62459060     0.42000
Cu70       Cu  0.69602728  0.88151713  0.58770519     0.43900
N71         N  0.74159969  0.88039998  0.63955280    -0.34600
N72         N  0.72959330  0.86887367  0.61147165    -0.28800
C73         C  0.74219270  0.84772303  0.60209037    -0.04900
C74         C  0.76320368  0.84566474  0.62534085     0.07300
C75         C  0.76230332  0.86674506  0.64881347     0.01100
H76         H  0.73617555  0.83457729  0.58028878     0.08700
H77         H  0.77534020  0.87148968  0.67144021     0.07800
N78         N  0.66264957  0.89698548  0.56739843    -0.36000
N79         N  0.65261413  0.91808540  0.58067494    -0.28200
C80         C  0.63077600  0.92270466  0.56222911    -0.03400
C81         C  0.62694202  0.90361916  0.53581847     0.05200
C82         C  0.64753856  0.88759784  0.54006526     0.03300
H83         H  0.61862121  0.93873891  0.56775976     0.08400
H84         H  0.65105564  0.87002586  0.52524558     0.07200
N85         N  0.60716372  0.87732737  0.07689624    -0.27200
N86         N  0.62610945  0.86487242  0.06130470    -0.35000
C87         C  0.63715178  0.87951559  0.03503618     0.01200
C88         C  0.62452342  0.90245047  0.03374590     0.07200
C89         C  0.60562705  0.90042704  0.06086207    -0.05900
H90         H  0.65380648  0.87407647  0.01926259     0.07800
H91         H  0.59194634  0.91470413  0.06863261     0.09000
Cu92       Cu  0.63798085  0.82969582  0.07858446     0.44200
Cu93       Cu  0.58619161  0.86250891  0.12124710     0.42000
Cu94       Cu  0.60988007  0.80182450  0.15991735     0.43900
N95         N  0.65195184  0.79761563  0.10376314    -0.34600
N96         N  0.64202324  0.78703517  0.13412126    -0.28800
C97         C  0.65708420  0.76778207  0.14507987    -0.04900
C98         C  0.67738489  0.76646155  0.12027713     0.07300
C99         C  0.67343197  0.78561598  0.09451194     0.01100
H100        H  0.65395617  0.75623582  0.16985050     0.08700
H101        H  0.68565993  0.79104116  0.07137794     0.07800
N102        N  0.58129084  0.82369418  0.18371505    -0.36000
N103        N  0.57274217  0.84537543  0.16995084    -0.28200
C104        C  0.55750362  0.85628050  0.19558436    -0.03400
C105        C  0.55667463  0.84100923  0.22722433     0.05200
C106        C  0.57171243  0.82033886  0.21841180     0.03300
H107        H  0.54974641  0.87522094  0.19289399     0.08400
H108        H  0.57690056  0.80491844  0.23680236     0.07200
C109        C  0.54147738  0.89003216  0.43428910     0.80300
N110        N  0.54609456  0.88142109  0.39898239    -0.78000
C111        C  0.52696701  0.87775790  0.37383014     0.82800
N112        N  0.50274212  0.88304585  0.38417039    -0.77900
C113        C  0.49771576  0.89108476  0.41980997     0.82900
N114        N  0.51708746  0.89450209  0.44480359    -0.79600
C115        C  0.64529743  0.98846109  0.93658405     0.80300
N116        N  0.65462958  0.98393502  0.90170346    -0.78000
C117        C  0.65704103  0.00283039  0.87601412     0.82800
N118        N  0.64953326  0.02672400  0.88516677    -0.77900
C119        C  0.64098247  0.03170633  0.92055915     0.82900
N120        N  0.63895631  0.01256938  0.94607248    -0.79600
N121        N  0.37353624  0.89505623  0.67615928    -0.27200
N122        N  0.37115786  0.87070943  0.66720341    -0.35000
C123        C  0.38473218  0.86622357  0.63584206     0.01200
C124        C  0.39582897  0.88886705  0.62434841     0.07200
C125        C  0.38832720  0.90671129  0.65054651    -0.05900
H126        H  0.38520507  0.84815235  0.62118637     0.07800
H127        H  0.39269171  0.92683916  0.65047683     0.09000
Cu128      Cu  0.34702362  0.84530772  0.69475890     0.44200
Cu129      Cu  0.35573629  0.91250925  0.72101637     0.42000
Cu130      Cu  0.31444146  0.87204182  0.77437618     0.43900
N131        N  0.31926887  0.82572750  0.72502993    -0.34600
N132        N  0.30791307  0.83552421  0.75480852    -0.28800
C133        C  0.28999464  0.81918273  0.76710546    -0.04900
C134        C  0.28980459  0.79815016  0.74372018     0.07300
C135        C  0.30862593  0.80288534  0.71732822     0.01100
H136        H  0.27715797  0.82299447  0.79013879     0.08700
H137        H  0.31359459  0.79107495  0.69354767     0.07800
N138        N  0.32048976  0.91003079  0.78676501    -0.36000
N139        N  0.33567308  0.92515317  0.76726753    -0.28200
C140        C  0.33541955  0.94854128  0.78268377    -0.03400
C141        C  0.31932808  0.94807133  0.81357219     0.05200
C142        C  0.31005048  0.92330276  0.81496874     0.03300
H143        H  0.34650760  0.96456764  0.77247739     0.08400
H144        H  0.29647207  0.91538958  0.83452169     0.07200
N145        N  0.32436064  0.93001850  0.26044246    -0.27200
N146        N  0.30996133  0.91347072  0.27873970    -0.35000
C147        C  0.32386447  0.90220571  0.30550993     0.01200
C148        C  0.34823620  0.91229586  0.30434892     0.07200
C149        C  0.34795347  0.92970191  0.27514330    -0.05900
H150        H  0.31640812  0.88830356  0.32514677     0.07800
H151        H  0.36331414  0.94234590  0.26672939     0.09000
Cu152      Cu  0.27159526  0.90856699  0.26947063     0.44200
Cu153      Cu  0.31014225  0.95381696  0.21926800     0.42000
Cu154      Cu  0.24151285  0.94894522  0.20170332     0.43900
N155        N  0.23383524  0.90519024  0.25479849    -0.34600
N156        N  0.22262495  0.91956897  0.22933730    -0.28800
C157        C  0.19881812  0.91066830  0.22351906    -0.04900
C158        C  0.19500627  0.88982899  0.24668688     0.07300
C159        C  0.21754155  0.88700276  0.26620497     0.01100
H160        H  0.18563597  0.91826090  0.20309334     0.08700
H161        H  0.22226087  0.87206549  0.28585304     0.07800
N162        N  0.26593768  0.97376499  0.17371830    -0.36000
N163        N  0.29079707  0.97501503  0.17952172    -0.28200
C164        C  0.30134805  0.99030019  0.15351301    -0.03400
C165        C  0.28229001  0.99926564  0.13025107     0.05200
C166        C  0.26005851  0.98843666  0.14401066     0.03300
H167        H  0.32165624  0.99360144  0.15060236     0.08400
H168        H  0.24131455  0.98944370  0.13151945     0.07200
C169        C  0.42869121  0.90273699  0.41411842     0.80300
N170        N  0.45316466  0.89827553  0.40432955    -0.78000
C171        C  0.47140688  0.89581750  0.43115855     0.82800
N172        N  0.46499227  0.89704440  0.46822500    -0.77900
C173        C  0.44047407  0.90145349  0.47821647     0.82900
N174        N  0.42262162  0.90463720  0.45109184    -0.79600
C175        C  0.29649407  0.02956071  0.91765961     0.80300
N176        N  0.29740123  0.02400233  0.95488577    -0.78000
C177        C  0.29044447  0.04118184  0.98120849     0.82800
N178        N  0.28273882  0.06456408  0.97013165    -0.77900
C179        C  0.28230260  0.07070312  0.93288090     0.82900
N180        N  0.28891525  0.05306323  0.90663027    -0.79600
N181        N  0.35619342  0.28556747  0.16232190    -0.27200
N182        N  0.34995512  0.30855998  0.17413410    -0.35000
C183        C  0.36063062  0.31264707  0.20805799     0.01200
C184        C  0.37418364  0.29126176  0.21812027     0.07200
C185        C  0.37118207  0.27462593  0.18825943    -0.05900
H186        H  0.35685401  0.32902758  0.22560357     0.07800
H187        H  0.37689853  0.25490661  0.18748247     0.09000
Cu188      Cu  0.32283426  0.33150366  0.14886328     0.44200
Cu189      Cu  0.33907199  0.26684257  0.11740460     0.42000
Cu190      Cu  0.28787115  0.30065777  0.07469987     0.43900
N191        N  0.29157031  0.34781368  0.12269435    -0.34600
N192        N  0.27906810  0.33627283  0.09511232    -0.28800
C193        C  0.25844133  0.34984490  0.08619585    -0.04900
C194        C  0.25770259  0.37093116  0.10939498     0.07300
C195        C  0.27908299  0.36915786  0.13214670     0.01100
H196        H  0.24424678  0.34395117  0.06574210     0.08700
H197        H  0.28438244  0.38162847  0.15520990     0.07800
N198        N  0.29626698  0.26337902  0.06180470    -0.36000
N199        N  0.31508970  0.25069387  0.07739518    -0.28200
C200        C  0.31515915  0.22690238  0.06336985    -0.03400
C201        C  0.29536507  0.22451797  0.03759321     0.05200
C202        C  0.28386248  0.24812566  0.03746569     0.03300
H203        H  0.32903656  0.21268265  0.07084870     0.08400
H204        H  0.26757358  0.25388770  0.02103479     0.07200
N205        N  0.24855480  0.18119704  0.67173159    -0.27200
N206        N  0.22558658  0.18854108  0.68200665    -0.35000
C207        C  0.21936845  0.17710276  0.71451988     0.01200
C208        C  0.23945007  0.16200982  0.72574952     0.07200
C209        C  0.25750870  0.16482972  0.69763666    -0.05900
H210        H  0.20223724  0.18097258  0.73010410     0.07800
H211        H  0.27664673  0.15739623  0.69777967     0.09000
Cu212      Cu  0.20512287  0.21752696  0.65691435     0.44200
Cu213      Cu  0.26828964  0.19696004  0.62648058     0.42000
Cu214      Cu  0.23547694  0.24882820  0.58032298     0.43900
N215        N  0.19018857  0.24959337  0.63146809    -0.34600
N216        N  0.20159560  0.26100278  0.60294574    -0.28800
C217        C  0.18827117  0.28159776  0.59305021    -0.04900
C218        C  0.16744244  0.28332120  0.61656854     0.07300
C219        C  0.16921894  0.26273379  0.64067058     0.01100
H220        H  0.19370465  0.29462537  0.57089716     0.08700
H221        H  0.15652502  0.25790848  0.66355159     0.07800
N222        N  0.27036551  0.23531036  0.56347826    -0.36000
N223        N  0.28289515  0.21699219  0.58069948    -0.28200
C224        C  0.30542214  0.21386957  0.56335797    -0.03400
C225        C  0.30682404  0.23078144  0.53354290     0.05200
C226        C  0.28429861  0.24405934  0.53455572     0.03300
H227        H  0.31956951  0.20012382  0.57154367     0.08400
H228        H  0.27863708  0.25937929  0.51615768     0.07200
C229        C  0.27212104  0.14005584  0.93755997     0.80300
N230        N  0.27733647  0.11573591  0.94738397    -0.78000
C231        C  0.27575895  0.09668053  0.92152594     0.82800
N232        N  0.26884292  0.10198851  0.88536883    -0.77900
C233        C  0.26267937  0.12618596  0.87561956     0.82900
N234        N  0.26447691  0.14489664  0.90187133    -0.79600
C235        C  0.40279247  0.25809262  0.36701666     0.80300
N236        N  0.42734884  0.25435674  0.37744073    -0.78000
C237        C  0.43304779  0.24798602  0.41351277     0.82800
N238        N  0.41407423  0.24485723  0.43901721    -0.77900
C239        C  0.38939538  0.24784519  0.42874824     0.82900
N240        N  0.38398809  0.25464890  0.39276197    -0.79600
N241        N  0.14623794  0.47829094  0.18258765    -0.27200
N242        N  0.17076282  0.47463078  0.18898427    -0.35000
C243        C  0.17821889  0.48916673  0.21821626     0.01200
C244        C  0.15753192  0.50280248  0.23090134     0.07200
C245        C  0.13759940  0.49543964  0.20755781    -0.05900
H246        H  0.19707308  0.48885610  0.23048385     0.07800
H247        H  0.11780587  0.50076146  0.21022430     0.09000
Cu248      Cu  0.19322823  0.44822885  0.16152947     0.44200
Cu249      Cu  0.12463283  0.45803613  0.14305098     0.42000
Cu250      Cu  0.16089551  0.41198014  0.09124884     0.43900
N251        N  0.21060352  0.41904028  0.13221673    -0.34600
N252        N  0.19843771  0.40587602  0.10594666    -0.28800
C253        C  0.21367703  0.38749063  0.09307590    -0.04900
C254        C  0.23656077  0.38899336  0.11228518     0.07300
C255        C  0.23400269  0.40925725  0.13692709     0.01100
H256        H  0.20807168  0.37343199  0.07226074     0.08700
H257        H  0.24775234  0.41586555  0.15756903     0.07800
N258        N  0.12287948  0.41913859  0.08097061    -0.36000
N259        N  0.10908632  0.43554040  0.10017442    -0.28200
C260        C  0.08544429  0.43597223  0.08529060    -0.03400
C261        C  0.08450316  0.41918828  0.05507598     0.05200
C262        C  0.10861416  0.40892925  0.05333217     0.03300
H263        H  0.07050205  0.44857964  0.09447599     0.08400
H264        H  0.11553719  0.39541281  0.03283167     0.07200
N265        N  0.05829745  0.39468058  0.67856005    -0.27200
N266        N  0.06272473  0.37109768  0.68943514    -0.35000
C267        C  0.05000835  0.36663495  0.72159692     0.01200
C268        C  0.03727805  0.38854581  0.73157960     0.07200
C269        C  0.04291976  0.40589910  0.70359995    -0.05900
H270        H  0.05121116  0.34922996  0.73776381     0.07800
H271        H  0.03693905  0.42549505  0.70204240     0.09000
Cu272      Cu  0.08838437  0.34723439  0.66290422     0.44200
Cu273      Cu  0.07464498  0.41170772  0.63216986     0.42000
Cu274      Cu  0.11970481  0.37456004  0.58120325     0.43900
N275        N  0.11739136  0.32941278  0.63362461    -0.34600
N276        N  0.12862750  0.33949486  0.60382170    -0.28800
C277        C  0.14759638  0.32429377  0.59275412    -0.04900
C278        C  0.14844190  0.30367490  0.61677053     0.07300
C279        C  0.12898503  0.30745614  0.64231804     0.01100
H280        H  0.16033600  0.32842888  0.56965486     0.08700
H281        H  0.12415663  0.29562774  0.66618412     0.07800
N282        N  0.10992983  0.41120950  0.56616760    -0.36000
N283        N  0.09354789  0.42502240  0.58527178    -0.28200
C284        C  0.09179078  0.44807351  0.56926397    -0.03400
C285        C  0.10774245  0.44877347  0.53830915     0.05200
C286        C  0.11902277  0.42505101  0.53734899     0.03300
H287        H  0.07963093  0.46309917  0.57930824     0.08400
H288        H  0.13325165  0.41843871  0.51780569     0.07200
C289        C  0.00521008  0.40462020  0.94266277     0.80300
N290        N  0.98084919  0.39820556  0.95215068    -0.78000
C291        C  0.96307531  0.39397570  0.92474429     0.82800
N292        N  0.96987205  0.39544767  0.88798008    -0.77900
C293        C  0.99400745  0.40177177  0.87833736     0.82900
N294        N  0.01137885  0.40676781  0.90566761    -0.79600
C295        C  0.12823744  0.53298520  0.43754237     0.80300
N296        N  0.13473088  0.52752974  0.40155650    -0.78000
C297        C  0.13966831  0.54618049  0.37634012     0.82800
N298        N  0.13780796  0.57089364  0.38706998    -0.77900
C299        C  0.13248251  0.57668285  0.42360980     0.82900
N300        N  0.12778927  0.55770308  0.44873290    -0.79600
N301        N  0.85335291  0.34279103  0.17851305    -0.27200
N302        N  0.84577276  0.32020356  0.16610747    -0.35000
C303        C  0.85557640  0.31639759  0.13164338     0.01200
C304        C  0.86985593  0.33766467  0.12173373     0.07200
C305        C  0.86816786  0.35382565  0.15234628    -0.05900
H306        H  0.85166589  0.29978271  0.11466019     0.07800
H307        H  0.87558404  0.37310106  0.15436355     0.09000
Cu308      Cu  0.81942794  0.29658816  0.19275385     0.44200
Cu309      Cu  0.84020618  0.36041794  0.22671582     0.42000
Cu310      Cu  0.78844478  0.32719605  0.26949966     0.43900
N311        N  0.78925628  0.27985372  0.22165206    -0.34600
N312        N  0.77804813  0.29156605  0.24995919    -0.28800
C313        C  0.75794115  0.27771791  0.26131015    -0.04900
C314        C  0.75618210  0.25619790  0.23902656     0.07300
C315        C  0.77643456  0.25805177  0.21417106     0.01100
H316        H  0.74487319  0.28357551  0.28306014     0.08700
H317        H  0.78071531  0.24528349  0.19120158     0.07800
N318        N  0.79982626  0.36334614  0.28541251    -0.36000
N319        N  0.81910059  0.37577449  0.27007466    -0.28200
C320        C  0.82098985  0.39900306  0.28592865    -0.03400
C321        C  0.80200120  0.40113894  0.31277600     0.05200
C322        C  0.78891324  0.37816271  0.31144076     0.03300
H323        H  0.83504362  0.41321907  0.27838491     0.08400
H324        H  0.77226027  0.37273817  0.32733786     0.07200
N325        N  0.75274104  0.43935788  0.66967994    -0.27200
N326        N  0.72985118  0.43158018  0.65890579    -0.35000
C327        C  0.72370657  0.44319445  0.62656441     0.01200
C328        C  0.74363904  0.45913546  0.61628451     0.07200
C329        C  0.76170637  0.45620154  0.64440205    -0.05900
H330        H  0.70637551  0.43944482  0.61091915     0.07800
H331        H  0.78073016  0.46439171  0.64521660     0.09000
Cu332      Cu  0.70865470  0.40364411  0.68570896     0.44200
Cu333      Cu  0.77177551  0.42475807  0.71600702     0.42000
Cu334      Cu  0.73741279  0.37491875  0.76608544     0.43900
N335        N  0.69148325  0.37448025  0.71563480    -0.34600
N336        N  0.70212881  0.36390186  0.74539641    -0.28800
C337        C  0.68676211  0.34528960  0.75823037    -0.04900
C338        C  0.66540785  0.34413108  0.73540712     0.07300
C339        C  0.66902880  0.36288605  0.70865198     0.01100
H340        H  0.69103958  0.33326559  0.78207999     0.08700
H341        H  0.65650303  0.36753376  0.68549849     0.07800
N342        N  0.77329778  0.38811583  0.78099026    -0.36000
N343        N  0.78604090  0.40603622  0.76279972    -0.28200
C344        C  0.80887044  0.40943879  0.77947729    -0.03400
C345        C  0.81046274  0.39296269  0.80981762     0.05200
C346        C  0.78755204  0.37970404  0.80971349     0.03300
H347        H  0.82310674  0.42300997  0.77034218     0.08400
H348        H  0.78176206  0.36458660  0.82845085     0.07200
C349        C  0.77845423  0.48680511  0.40909655     0.80300
N350        N  0.78406800  0.51134637  0.40021699    -0.78000
C351        C  0.78109807  0.53013382  0.42624828     0.82800
N352        N  0.77263313  0.52428412  0.46144484    -0.77900
C353        C  0.76586358  0.49995720  0.46984879     0.82900
N354        N  0.76887608  0.48155246  0.44361189    -0.79600
C355        C  0.89427776  0.38001145  0.91443077     0.80300
N356        N  0.91848210  0.38768687  0.90691169    -0.78000
C357        C  0.93678336  0.38677562  0.93410315     0.82800
N358        N  0.93078380  0.37820149  0.96911842    -0.77900
C359        C  0.90679325  0.36970342  0.97644730     0.82900
N360        N  0.88887700  0.37061399  0.94900539    -0.79600
N361        N  0.07096694  0.79191269  0.18704368    -0.27200
N362        N  0.08029268  0.81381748  0.17477573    -0.35000
C363        C  0.07215695  0.81760784  0.13938349     0.01200
C364        C  0.05712347  0.79704777  0.12871532     0.07200
C365        C  0.05655305  0.78129668  0.15982345    -0.05900
H366        H  0.07811924  0.83342624  0.12197625     0.07800
H367        H  0.04825521  0.76237097  0.16133393     0.09000
Cu368      Cu  0.10753007  0.83549552  0.20278990     0.44200
Cu369      Cu  0.08235257  0.77458235  0.23638441     0.42000
Cu370      Cu  0.13434847  0.80614641  0.28443335     0.43900
N371        N  0.13841720  0.85064878  0.23175797    -0.34600
N372        N  0.14834442  0.83954249  0.26164282    -0.28800
C373        C  0.16943827  0.85230510  0.27218929    -0.04900
C374        C  0.17295403  0.87247021  0.24780123     0.07300
C375        C  0.15291250  0.87093322  0.22252922     0.01100
H376        H  0.18177944  0.84672243  0.29509725     0.08700
H377        H  0.14977802  0.88286184  0.19821877     0.07800
N378        N  0.11978558  0.77110246  0.29995722    -0.36000
N379        N  0.10095034  0.75928522  0.28226178    -0.28200
C380        C  0.09731599  0.73625201  0.29789695    -0.03400
C381        C  0.11458738  0.73362496  0.32711230     0.05200
C382        C  0.12854620  0.75607513  0.32747236     0.03300
H383        H  0.08328791  0.72247943  0.28855595     0.08400
H384        H  0.14452732  0.76086876  0.34544293     0.07200
N385        N  0.15515877  0.71173452  0.78390529    -0.27200
N386        N  0.16872953  0.72935394  0.80154081    -0.35000
C387        C  0.15427906  0.74025563  0.82806814     0.01200
C388        C  0.13031348  0.72894727  0.82726226     0.07200
C389        C  0.13165384  0.71091407  0.79878262    -0.05900
H390        H  0.16052772  0.75617840  0.84508299     0.07800
H391        H  0.11652684  0.69852696  0.78885879     0.09000
Cu392      Cu  0.20503217  0.74032829  0.78562838     0.44200
Cu393      Cu  0.16827977  0.69224762  0.73728807     0.42000
Cu394      Cu  0.22734392  0.71676620  0.69650370     0.43900
N395        N  0.23802151  0.75323730  0.76007991    -0.34600
N396        N  0.24623267  0.74492647  0.72717090    -0.28800
C397        C  0.26666846  0.75890456  0.71685663    -0.04900
C398        C  0.27135673  0.77691447  0.74458513     0.07300
C399        C  0.25287217  0.77270264  0.77155426     0.01100
H400        H  0.27655403  0.75690788  0.69035689     0.08700
H401        H  0.24969318  0.78368714  0.79684671     0.07800
N402        N  0.20374876  0.68986970  0.67077841    -0.36000
N403        N  0.18267890  0.68058928  0.68597775    -0.28200
C404        C  0.17081437  0.66547028  0.66078555    -0.03400
C405        C  0.18493866  0.66524186  0.62794614     0.05200
C406        C  0.20573068  0.68093993  0.63542836     0.03300
H407        H  0.15216571  0.65698431  0.66512193     0.08400
H408        H  0.22060726  0.68649897  0.61602293     0.07200
C409        C  0.13265346  0.64705515  0.42350926     0.80300
N410        N  0.14137316  0.65185445  0.45875081    -0.78000
C411        C  0.14654667  0.63283100  0.48307772     0.82800
N412        N  0.14212379  0.60836831  0.47237239    -0.77900
C413        C  0.13409608  0.60314120  0.43664461     0.82900
N414        N  0.12961052  0.62250667  0.41219966    -0.79600
C415        C  0.02771890  0.76479192  0.97929285     0.80300
N416        N  0.00358805  0.75841275  0.96898764    -0.78000
C417        C  0.99865344  0.74994328  0.93347423     0.82800
N418        N  0.01810396  0.74715533  0.90857228    -0.77900
C419        C  0.04241367  0.75287915  0.91898407     0.82900
N420        N  0.04682393  0.76202537  0.95412074    -0.79600
N421        N  0.87302436  0.73174794  0.67899292    -0.27200
N422        N  0.87074620  0.75605302  0.68800148    -0.35000
C423        C  0.88614484  0.76121477  0.71740145     0.01200
C424        C  0.89836464  0.73909102  0.72764201     0.07200
C425        C  0.88956644  0.72079234  0.70273741    -0.05900
H426        H  0.88685751  0.77924553  0.73214979     0.07800
H427        H  0.89395163  0.70074451  0.70289347     0.09000
Cu428      Cu  0.84383252  0.78034270  0.66474992     0.44200
Cu429      Cu  0.85227570  0.71334476  0.63737204     0.42000
Cu430      Cu  0.80453560  0.75081893  0.59329815     0.43900
N431        N  0.81276294  0.79827475  0.64009193    -0.34600
N432        N  0.79874293  0.78718753  0.61369133    -0.28800
C433        C  0.77958840  0.80259588  0.60414439    -0.04900
C434        C  0.78138231  0.82446687  0.62564381     0.07300
C435        C  0.80268115  0.82114764  0.64819845     0.01100
H436        H  0.76498942  0.79782757  0.58373484     0.08700
H437        H  0.80997353  0.83409760  0.66942713     0.07800
N438        N  0.81189779  0.71365791  0.57784714    -0.36000
N439        N  0.82937725  0.69964214  0.59433991    -0.28200
C440        C  0.83004540  0.67675695  0.57743996    -0.03400
C441        C  0.81209405  0.67635023  0.54877874     0.05200
C442        C  0.80099161  0.70013942  0.54992837     0.03300
H443        H  0.84340965  0.66196890  0.58454448     0.08400
H444        H  0.78628285  0.70729078  0.53150720     0.07200
N445        N  0.79358835  0.66026193  0.17676120    -0.27200
N446        N  0.76964081  0.66346968  0.18695914    -0.35000
C447        C  0.76468531  0.64874170  0.21698698     0.01200
C448        C  0.78662385  0.63592687  0.22646358     0.07200
C449        C  0.80458775  0.64370012  0.20039371    -0.05900
H450        H  0.74688567  0.64866286  0.23234680     0.07800
H451        H  0.82440598  0.63835845  0.19935971     0.09000
Cu452      Cu  0.74573756  0.69023853  0.16337572     0.44200
Cu453      Cu  0.81093582  0.67971502  0.13299680     0.42000
Cu454      Cu  0.77250921  0.72618267  0.08601678     0.43900
N455        N  0.72711759  0.72000643  0.13736118    -0.34600
N456        N  0.73691716  0.73278191  0.10874299    -0.28800
C457        C  0.72062247  0.75096596  0.09832985    -0.04900
C458        C  0.69957502  0.74967639  0.12155328     0.07300
C459        C  0.70430805  0.72986794  0.14607711     0.01100
H460        H  0.72408651  0.76437975  0.07581536     0.08700
H461        H  0.69219564  0.72318890  0.16865650     0.07800
N462        N  0.80974157  0.71857576  0.07110002    -0.36000
N463        N  0.82396838  0.70176486  0.08869747    -0.28200
C464        C  0.84725674  0.70171094  0.07311501    -0.03400
C465        C  0.84777970  0.71942386  0.04427383     0.05200
C466        C  0.82355465  0.72963180  0.04373458     0.03300
H467        H  0.86243185  0.68924478  0.08173261     0.08400
H468        H  0.81650260  0.74420842  0.02510053     0.07200
C469        C  0.79685277  0.59870022  0.43505211     0.80300
N470        N  0.79092137  0.57424071  0.44404209    -0.78000
C471        C  0.78728790  0.55658996  0.41643532     0.82800
N472        N  0.78909649  0.56359291  0.37966417    -0.77900
C473        C  0.79520903  0.58796161  0.37057139     0.82900
N474        N  0.79937561  0.60521972  0.39832749    -0.79600
C475        C  0.92944945  0.73608546  0.93806409     0.80300
N476        N  0.92413868  0.73196611  0.90118597    -0.78000
C477        C  0.94246565  0.73420874  0.87460922     0.82800
N478        N  0.96664989  0.74019488  0.88512699    -0.77900
C479        C  0.97242247  0.74371938  0.92213849     0.82900
N480        N  0.95375080  0.74180027  0.94853416    -0.79600
C481        C  0.77218318  0.60318273  0.27250805    -0.21200
C482        C  0.79073340  0.62084285  0.26083714    -0.09200
C483        C  0.81202908  0.62555067  0.28393405     0.29600
C484        C  0.81388313  0.61381197  0.31904491    -0.21200
C485        C  0.79496672  0.59673702  0.33124057    -0.09300
C486        C  0.77442018  0.59088088  0.30723812     0.29600
F487        F  0.75563427  0.57472771  0.31846909    -0.19800
H488        H  0.75562164  0.59937104  0.25502645     0.18000
H489        H  0.82977782  0.61865432  0.33732971     0.18000
F490        F  0.83007594  0.64286276  0.27385812    -0.19800
C491        C  0.86369783  0.73353806  0.98155097    -0.21200
C492        C  0.86903777  0.72527581  0.01825307    -0.09200
C493        C  0.89462230  0.72232013  0.02922764     0.29600
C494        C  0.91429082  0.72669566  0.00343902    -0.21200
C495        C  0.90882215  0.73382604  0.96622798    -0.09300
C496        C  0.88327743  0.73771965  0.95574733     0.29600
F497        F  0.87711020  0.74561745  0.92053470    -0.19800
H498        H  0.84424278  0.73614237  0.97236332     0.18000
H499        H  0.93377557  0.72382900  0.01233275     0.18000
F500        F  0.90073243  0.71546000  0.06490434    -0.19800
C501        C  0.79934517  0.66270458  0.48418538    -0.21200
C502        C  0.80744552  0.65608117  0.52050833    -0.09200
C503        C  0.81131713  0.63024660  0.52894568     0.29600
C504        C  0.80742392  0.61159963  0.50127140    -0.21200
C505        C  0.79993888  0.61835732  0.46466151    -0.09300
C506        C  0.79572676  0.64418257  0.45648823     0.29600
F507        F  0.78778781  0.65163540  0.42184821    -0.19800
H508        H  0.79625971  0.68242533  0.47681995     0.18000
H509        H  0.81067019  0.59185121  0.50835990     0.18000
F510        F  0.81840430  0.62290972  0.56401253    -0.19800
C511        C  0.93212792  0.75239646  0.77308248    -0.21200
C512        C  0.91288544  0.73508544  0.76261171    -0.09200
C513        C  0.90583712  0.71558092  0.78760851     0.29600
C514        C  0.91663470  0.71464553  0.82350825    -0.21200
C515        C  0.93505100  0.73265248  0.83466884    -0.09300
C516        C  0.94349372  0.75098527  0.80867335     0.29600
F517        F  0.96120900  0.76871632  0.81865126    -0.19800
H518        H  0.93777899  0.76751691  0.75405106     0.18000
H519        H  0.90989945  0.70037104  0.84321087     0.18000
F520        F  0.88709095  0.69869885  0.77853371    -0.19800
C521        C  0.18415108  0.66786746  0.55797485    -0.21200
C522        C  0.17691400  0.65498073  0.59083935    -0.09200
C523        C  0.16096041  0.63335425  0.58771720     0.29600
C524        C  0.15186510  0.62545399  0.55238729    -0.21200
C525        C  0.15818399  0.63920372  0.51985371    -0.09300
C526        C  0.17485047  0.66023614  0.52293081     0.29600
F527        F  0.18211108  0.67358284  0.49200521    -0.19800
H528        H  0.19636425  0.68458899  0.55939285     0.18000
H529        H  0.13916791  0.60910999  0.55061305     0.18000
F530        F  0.15411647  0.61989489  0.61870002    -0.19800
C531        C  0.08303772  0.72992330  0.83703093    -0.21200
C532        C  0.10772202  0.73574463  0.85008622    -0.09200
C533        C  0.11047942  0.74798727  0.88514032     0.29600
C534        C  0.08913454  0.75394178  0.90650140    -0.21200
C535        C  0.06442441  0.74774184  0.89392190    -0.09300
C536        C  0.06157967  0.73584888  0.85854129     0.29600
F537        F  0.03821865  0.72962501  0.84478186    -0.19800
H538        H  0.08022405  0.72079155  0.80991736     0.18000
H539        H  0.09217886  0.76309330  0.93355252     0.18000
F540        F  0.13377619  0.75341215  0.89976959    -0.19800
C541        C  0.11379360  0.68662057  0.33814825    -0.21200
C542        C  0.11822569  0.71137252  0.35176304    -0.09200
C543        C  0.12666092  0.71469386  0.38899372     0.29600
C544        C  0.13107903  0.69369198  0.41175113    -0.21200
C545        C  0.12723244  0.66878409  0.39817382    -0.09300
C546        C  0.11833135  0.66543992  0.36097947     0.29600
F547        F  0.11418391  0.64187169  0.34646631    -0.19800
H548        H  0.10730834  0.68362301  0.30944311     0.18000
H549        H  0.13759488  0.69714197  0.44031266     0.18000
F550        F  0.13008425  0.73827151  0.40387881    -0.19800
C551        C  0.02574527  0.77659558  0.08490299    -0.21200
C552        C  0.04847340  0.79041154  0.09032976    -0.09200
C553        C  0.06367971  0.79634898  0.05899226     0.29600
C554        C  0.05635700  0.78837744  0.02313449    -0.21200
C555        C  0.03376755  0.77435961  0.01751705    -0.09300
C556        C  0.01826468  0.76876648  0.04878226     0.29600
F557        F  0.99649107  0.75492253  0.04477493    -0.19800
H558        H  0.01386461  0.77167073  0.10877455     0.18000
H559        H  0.06873361  0.79293275  0.99963962     0.18000
F560        F  0.08637200  0.80859581  0.06307651    -0.19800
C561        C  0.73506630  0.46198780  0.54750917    -0.21200
C562        C  0.74685232  0.47223372  0.57970480    -0.09200
C563        C  0.76269050  0.49384494  0.57587300     0.29600
C564        C  0.76765282  0.50400281  0.54012638    -0.21200
C565        C  0.75716594  0.49255144  0.50781006    -0.09300
C566        C  0.74020029  0.47189886  0.51196461     0.29600
F567        F  0.72904063  0.46079379  0.48148344    -0.19800
H568        H  0.72272711  0.44543330  0.54947572     0.18000
H569        H  0.78066776  0.52000230  0.53758002     0.18000
F570        F  0.77362614  0.50493836  0.60649570    -0.19800
C571        C  0.85711473  0.39497679  0.82478064    -0.21200
C572        C  0.83202099  0.38982086  0.83633136    -0.09200
C573        C  0.82776331  0.38145994  0.87337712     0.29600
C574        C  0.84813115  0.37808050  0.89797282    -0.21200
C575        C  0.87331693  0.38312340  0.88664590    -0.09300
C576        C  0.87762884  0.39160891  0.84953174     0.29600
F577        F  0.90153446  0.39652730  0.83694020    -0.19800
H578        H  0.86093520  0.40130387  0.79630371     0.18000
H579        H  0.84394335  0.37180776  0.92635626     0.18000
F580        F  0.80385346  0.37736484  0.88652544    -0.19800
C581        C  0.80169026  0.44812567  0.32505553    -0.21200
C582        C  0.79630982  0.42321708  0.33714938    -0.09200
C583        C  0.78510647  0.41957891  0.37263481     0.29600
C584        C  0.77911972  0.44035972  0.39513069    -0.21200
C585        C  0.78428910  0.46538620  0.38323004    -0.09300
C586        C  0.79568561  0.46908154  0.34771776     0.29600
F587        F  0.80109396  0.49278296  0.33479239    -0.19800
H588        H  0.81024525  0.45142646  0.29773881     0.18000
H589        H  0.77063202  0.43662389  0.42237018     0.18000
F590        F  0.78066303  0.39589951  0.38639292    -0.19800
C591        C  0.90158097  0.36110313  0.08216456    -0.21200
C592        C  0.88097238  0.34390571  0.08458457    -0.09200
C593        C  0.87012519  0.33427215  0.05116329     0.29600
C594        C  0.87933329  0.34220250  0.01631046    -0.21200
C595        C  0.89950427  0.35983100  0.01382583    -0.09300
C596        C  0.91090402  0.36894569  0.04711902     0.29600
F597        F  0.93010278  0.38637584  0.04591470    -0.19800
H598        H  0.91024737  0.36880695  0.10746950     0.18000
H599        H  0.87020918  0.33489700  0.99107174     0.18000
F600        F  0.84963731  0.31838855  0.05181644    -0.19800
C601        C  0.10949152  0.49550904  0.52518607    -0.21200
C602        C  0.11217449  0.47036350  0.51240580    -0.09200
C603        C  0.11923664  0.46611646  0.47481811     0.29600
C604        C  0.12422504  0.48657011  0.45098675    -0.21200
C605        C  0.12223582  0.51181643  0.46382136    -0.09300
C606        C  0.11447228  0.51608896  0.50124967     0.29600
F607        F  0.11171767  0.54001144  0.51493303    -0.19800
H608        H  0.10397245  0.49929566  0.55397783     0.18000
H609        H  0.12971033  0.48245265  0.42227126     0.18000
F610        F  0.12072478  0.44221587  0.46058773    -0.19800
C611        C  0.00824194  0.37423186  0.78272447    -0.21200
C612        C  0.02385057  0.39328759  0.76724984    -0.09200
C613        C  0.02786877  0.41605682  0.78738930     0.29600
C614        C  0.01751986  0.41898950  0.82330490    -0.21200
C615        C  0.00238505  0.39970436  0.83904808    -0.09300
C616        C  0.99723474  0.37752513  0.81814571     0.29600
F617        F  0.98286469  0.35843244  0.83291832    -0.23000
H618        H  0.00489410  0.35660044  0.76755606     0.18000
H619        H  0.02168273  0.43617097  0.83918455     0.18000
F620        F  0.04304179  0.43480801  0.77345064    -0.19800
C621        C  0.13494258  0.54852216  0.30640178    -0.21200
C622        C  0.14755183  0.53891321  0.33809839    -0.09200
C623        C  0.16559903  0.51963311  0.33343554     0.29600
C624        C  0.16980727  0.50908205  0.29798553    -0.21200
C625        C  0.15576998  0.51719300  0.26663511    -0.09300
C626        C  0.13882269  0.53758410  0.27084977     0.29600
F627        F  0.12564294  0.54653292  0.24084685    -0.19800
H628        H  0.12101541  0.56342791  0.30953033     0.18000
H629        H  0.18303157  0.49349915  0.29557524     0.18000
F630        F  0.17852202  0.51035402  0.36350689    -0.19800
C631        C  0.07015068  0.41170084  0.98920566    -0.21200
C632        C  0.06380763  0.41535540  0.02713459    -0.09200
C633        C  0.03797885  0.41512296  0.03748538     0.29600
C634        C  0.01896174  0.41138241  0.01010360    -0.21200
C635        C  0.02533973  0.40811966  0.97190450    -0.09300
C636        C  0.05133059  0.40823457  0.96188384     0.29600
F637        F  0.05884135  0.40469673  0.92571586    -0.19800
H638        H  0.08989146  0.41187425  0.98042433     0.18000
H639        H  0.99921523  0.41122169  0.01881320     0.18000
F640        F  0.03114785  0.41779892  0.07409572    -0.19800
C641        C  0.35319677  0.23427619  0.51949945    -0.21200
C642        C  0.32793729  0.23450841  0.50675140    -0.09200
C643        C  0.32299744  0.23899788  0.46846230     0.29600
C644        C  0.34304514  0.24324845  0.44346237    -0.21200
C645        C  0.36845524  0.24332845  0.45606972    -0.09300
C646        C  0.37331607  0.23887673  0.49461360     0.29600
F647        F  0.39737850  0.23934252  0.50858298    -0.19800
H648        H  0.35733646  0.23111316  0.54902672     0.18000
H649        H  0.33855750  0.24638317  0.41405024     0.18000
F650        F  0.29880478  0.23861288  0.45496370    -0.19800
C651        C  0.25679380  0.12830022  0.76856818    -0.21200
C652        C  0.24344244  0.15111527  0.76372156    -0.09200
C653        C  0.23520795  0.16440839  0.79575838     0.29600
C654        C  0.24077737  0.15544292  0.83166311    -0.21200
C655        C  0.25470389  0.13304741  0.83684036    -0.09300
C656        C  0.26217114  0.11911191  0.80484950     0.29600
F657        F  0.27560159  0.09734398  0.80848585    -0.19800
H658        H  0.26331829  0.11778232  0.74425186     0.18000
H659        H  0.23462823  0.16655714  0.85563396     0.18000
F660        F  0.22316550  0.18701671  0.79264393    -0.19800
C661        C  0.40561106  0.27155170  0.26181758    -0.21200
C662        C  0.38254236  0.28424088  0.25631745    -0.09200
C663        C  0.36647079  0.28837739  0.28721825     0.29600
C664        C  0.37330417  0.27979260  0.32288435    -0.21200
C665        C  0.39639750  0.26715245  0.32871992    -0.09300
C666        C  0.41271857  0.26329702  0.29779596     0.29600
F667        F  0.43508894  0.25091442  0.30199437    -0.19800
H668        H  0.41806314  0.26793795  0.23813864     0.18000
H669        H  0.36034470  0.28306173  0.34606575     0.18000
F670        F  0.34353309  0.29962223  0.28268642    -0.19800
C671        C  0.28898865  0.15713064  0.99896482    -0.21200
C672        C  0.27673732  0.16140607  0.96430467    -0.09200
C673        C  0.26991304  0.18649087  0.95495214     0.29600
C674        C  0.27583707  0.20658990  0.97916766    -0.21200
C675        C  0.28863875  0.20244661  0.01330354    -0.09300
C676        C  0.29492138  0.17735937  0.02324987     0.29600
F677        F  0.30642900  0.17221211  0.05657005    -0.19800
H678        H  0.29434833  0.13807181  0.00720998     0.18000
H679        H  0.27078990  0.22564952  0.97052740     0.18000
F680        F  0.25769190  0.19187559  0.92225024    -0.19800
C681        C  0.39436284  0.91014775  0.32052145    -0.21200
C682        C  0.36885659  0.90842289  0.33190125    -0.09200
C683        C  0.36326901  0.90427834  0.37010783     0.29600
C684        C  0.38285982  0.90233626  0.39635587    -0.21200
C685        C  0.40843946  0.90429971  0.38523481    -0.09300
C686        C  0.41406227  0.90792834  0.34681050     0.29600
F687        F  0.43846036  0.90995675  0.33463723    -0.19800
H688        H  0.39904759  0.91330243  0.29118453     0.18000
H689        H  0.37786045  0.89944387  0.42563691     0.18000
F690        F  0.33889594  0.90330446  0.38259708    -0.19800
C691        C  0.30668728  0.00714443  0.07141828    -0.21200
C692        C  0.28554641  0.01262476  0.09397246    -0.09200
C693        C  0.26707849  0.02953490  0.08041054     0.29600
C694        C  0.26944874  0.04008243  0.04435753    -0.21200
C695        C  0.28991959  0.03343536  0.02111604    -0.09300
C696        C  0.30876382  0.01719169  0.03522919     0.29600
F697        F  0.32901838  0.01065282  0.01373888    -0.19800
H698        H  0.32112090  0.99411608  0.08111593     0.18000
H699        H  0.25469048  0.05249900  0.03395655     0.18000
F700        F  0.24666831  0.03565526  0.10182184    -0.19800
C701        C  0.42810457  0.87674663  0.57633289    -0.21200
C702        C  0.40938218  0.89363895  0.58874900    -0.09200
C703        C  0.40271288  0.91434066  0.56591171     0.29600
C704        C  0.41384637  0.91735249  0.53055838    -0.21200
C705        C  0.43218312  0.90019362  0.51773801    -0.09300
C706        C  0.43974373  0.88016131  0.54126618     0.29600
F707        F  0.45707587  0.86297774  0.52935877    -0.19800
H708        H  0.43343408  0.86067439  0.59362750     0.18000
H709        H  0.40761253  0.93276929  0.51261883     0.18000
F710        F  0.38424770  0.93068504  0.57665087    -0.19800
C711        C  0.30013450  0.98382331  0.90153634    -0.21200
C712        C  0.30231660  0.00929374  0.89010250    -0.09200
C713        C  0.31052091  0.01461466  0.85323369     0.29600
C714        C  0.31617081  0.99465930  0.82845072    -0.21200
C715        C  0.31362670  0.96915175  0.83994206    -0.09300
C716        C  0.30573967  0.96401677  0.87700700     0.29600
F717        F  0.30416329  0.93990383  0.89031915    -0.19800
H718        H  0.29402260  0.97906494  0.92978776     0.18000
H719        H  0.32233678  0.99919863  0.80017240     0.18000
F720        F  0.31368827  0.03896373  0.84141016    -0.19800
C721        C  0.52532950  0.86294767  0.26890313    -0.21200
C722        C  0.54758603  0.84856115  0.26498045    -0.09200
C723        C  0.56214445  0.84313370  0.29719455     0.29600
C724        C  0.55485202  0.85232067  0.33228867    -0.21200
C725        C  0.53287682  0.86702950  0.33634579    -0.09300
C726        C  0.51782014  0.87193129  0.30436162     0.29600
F727        F  0.49653295  0.88623289  0.30699735    -0.19800
H728        H  0.51392741  0.86746100  0.24442259     0.18000
H729        H  0.56676671  0.84815795  0.35639380     0.18000
F730        F  0.58431111  0.83023744  0.29471543    -0.19800
C731        C  0.62445507  0.94924257  0.02135483    -0.21200
C732        C  0.63052098  0.92455208  0.00949661    -0.09200
C733        C  0.64221069  0.92124744  0.97425268     0.29600
C734        C  0.64733117  0.94216035  0.95136641    -0.21200
C735        C  0.64092659  0.96689631  0.96279898    -0.09300
C736        C  0.62965476  0.97026140  0.99844592     0.29600
F737        F  0.62338690  0.99370941  0.01121062    -0.19800
H738        H  0.61575085  0.95235796  0.04859105     0.18000
H739        H  0.65600107  0.93877152  0.92418257     0.18000
F740        F  0.64782927  0.89775965  0.96098703    -0.19800
C741        C  0.58713472  0.88440235  0.45122782    -0.21200
C742        C  0.56306732  0.89392265  0.46072170    -0.09200
C743        C  0.56034701  0.90720845  0.49495191     0.29600
C744        C  0.58124274  0.91048211  0.51903761    -0.21200
C745        C  0.60514691  0.90055817  0.50966923    -0.09300
C746        C  0.60792194  0.88765589  0.47524080     0.29600
F747        F  0.63084712  0.87874502  0.46408461    -0.19800
H748        H  0.59002418  0.87428180  0.42498074     0.18000
H749        H  0.57857721  0.92054215  0.54539764     0.18000
F750        F  0.53769070  0.91729056  0.50509041    -0.19800
C751        C  0.69386799  0.96977274  0.79945301    -0.21200
C752        C  0.68399058  0.98083054  0.76665201    -0.09200
C753        C  0.66665183  0.00101746  0.77028189     0.29600
C754        C  0.65869234  0.00900029  0.80603360    -0.21200
C755        C  0.66763532  0.99685202  0.83856835    -0.09300
C756        C  0.68580075  0.97755112  0.83491618     0.29600
F757        F  0.69563340  0.96590782  0.86570647    -0.19800
H758        H  0.70720644  0.95422700  0.79791260     0.18000
H759        H  0.64480164  0.02404115  0.80821066     0.18000
F760        F  0.65721133  0.01291097  0.73946880    -0.19800
C761        C  0.49054902  0.25963242  0.53580082    -0.21200
C762        C  0.49688221  0.23883278  0.51306412    -0.09200
C763        C  0.51187191  0.21931122  0.52792320     0.29600
C764        C  0.52114409  0.22106971  0.56472309    -0.21200
C765        C  0.51615481  0.24263325  0.58678017    -0.09300
C766        C  0.50037391  0.26173513  0.57229999     0.29600
F767        F  0.49475166  0.28255366  0.59321198    -0.19800
H768        H  0.47900331  0.27483570  0.52463914     0.18000
H769        H  0.53327324  0.20614428  0.57528943     0.18000
F770        F  0.51786280  0.19877710  0.50660601    -0.19800
C771        C  0.60880654  0.13481320  0.82520250    -0.21200
C772        C  0.60734512  0.15998567  0.83828939    -0.09200
C773        C  0.61061712  0.16490126  0.87687684     0.29600
C774        C  0.61559083  0.14513051  0.90171050    -0.21200
C775        C  0.61747858  0.11990038  0.88888297    -0.09300
C776        C  0.61400318  0.11488663  0.85017095     0.29600
F777        F  0.61541200  0.09086464  0.83636133    -0.19800
H778        H  0.60633844  0.13062547  0.79556687     0.18000
H779        H  0.61799257  0.14977225  0.93121498     0.18000
F780        F  0.60828099  0.18875567  0.89101252    -0.19800
C781        C  0.56787301  0.23485158  0.36468585    -0.21200
C782        C  0.56190291  0.22575570  0.32850877    -0.09200
C783        C  0.53615747  0.22297449  0.31813028     0.29600
C784        C  0.51693505  0.22804285  0.34419292    -0.21200
C785        C  0.52299948  0.23580672  0.38105105    -0.09300
C786        C  0.54873377  0.23981397  0.39074433     0.29600
F787        F  0.55551213  0.24844457  0.42544048    -0.19800
H788        H  0.58752079  0.23738956  0.37341543     0.18000
H789        H  0.49726632  0.22518208  0.33576899     0.18000
F790        F  0.52950981  0.21550468  0.28283217    -0.19800
C791        C  0.64847067  0.08486944  0.04372721    -0.21200
C792        C  0.62977979  0.09537801  0.02020747    -0.09200
C793        C  0.61434094  0.11491918  0.03430071     0.29600
C794        C  0.61810894  0.12421569  0.07072923    -0.21200
C795        C  0.63765965  0.11467061  0.09344129    -0.09300
C796        C  0.65264205  0.09467222  0.07994346     0.29600
F797        F  0.67137114  0.08478423  0.10166179    -0.19800
H798        H  0.66060477  0.06984347  0.03348674     0.18000
H799        H  0.60640062  0.13968133  0.08063376     0.18000
F800        F  0.59582871  0.12533374  0.01269171    -0.19800
loop_ 
_geom_bond_atom_site_label_1 
_geom_bond_atom_site_label_2 
_geom_bond_distance 
_geom_bond_site_symmetry_2 
_ccdc_geom_bond_type 
N1            N2   1.325       .  A
N1            C5   1.343       .  A
N1           Cu9   2.071       .  S
N2            C3   1.347       .  A
N2           Cu8   2.087       .  S
C3            C4   1.385       .  A
C3            H6   1.082       .  S
C4            C5   1.380       .  A
C4          C795   1.473       .  S
C5            H7   1.085       .  S
Cu8          N11   2.087       .  S
Cu9          N19   2.070       .  S
Cu10         N12   2.061       .  S
Cu10         N18   2.061       .  S
N11          N12   1.322       .  A
N11          C15   1.351       .  A
N12          C13   1.340       .  A
C13          C14   1.380       .  A
C13          H16   1.081       .  S
C14          C15   1.388       .  A
C14         C314   1.474       .  S
C15          H17   1.081       .  S
N18          N19   1.319       .  A
N18          C22   1.342       .  A
N19          C20   1.345       .  A
C20          C21   1.388       .  A
C20          H23   1.083       .  S
C21          C22   1.385       .  A
C21         C782   1.480       .  S
C22          H24   1.082       .  S
N25          N26   1.321       .  A
N25          C29   1.346       .  A
N25         Cu33   2.070       .  S
N26          C27   1.341       .  A
N26         Cu32   2.062       .  S
C27          C28   1.384       .  A
C27          H30   1.079       .  S
C28          C29   1.385       .  A
C28         C772   1.477       .  S
C29          H31   1.083       .  S
Cu32         N35   2.061       .  S
Cu33         N43   2.071       .  S
Cu34         N36   2.074       .  S
Cu34         N42   2.074       .  S
N35          N36   1.321       .  A
N35          C39   1.343       .  A
N36          C37   1.346       .  A
C37          C38   1.385       .  A
C37          H40   1.082       .  S
C38          C39   1.381       .  A
C38         C338   1.470       .  S
C39          H41   1.082       .  S
N42          N43   1.323       .  A
N42          C46   1.344       .  A
N43          C44   1.343       .  A
C44          C45   1.382       .  A
C44          H47   1.085       .  S
C45          C46   1.384       .  A
C45         C765   1.474       .  S
C46          H48   1.082       .  S
C49          N50   1.357       .  A
C49          N54   1.359       .  A
C49         C785   1.480       .  S
N50          C51   1.355       .  A
C51          N52   1.356       .  A
C51         C762   1.467       .  S
N52          C53   1.358       .  A
C53          N54   1.359       .  A
C53         C237   1.464       .  S
C55          N56   1.360       .  A
C55          N60   1.357       .  A
C55         C775   1.485       .  S
N56          C57   1.361       .  A
C57          N58   1.360       .  A
C57         C119   1.466       .  S
N58          C59   1.356       .  A
C59          N60   1.353       .  A
C59         C792   1.477   1_556  S
N61          N62   1.322       .  A
N61          C65   1.344       .  A
N61         Cu69   2.065       .  S
N62          C63   1.343       .  A
N62         Cu68   2.085       .  S
C63          C64   1.389       .  A
C63          H66   1.082       .  S
C64          C65   1.385       .  A
C64         C752   1.485       .  S
C65          H67   1.084       .  S
Cu68         N71   2.084       .  S
Cu69         N79   2.064       .  S
Cu70         N72   2.070       .  S
Cu70         N78   2.069       .  S
N71          N72   1.322       .  A
N71          C75   1.350       .  A
N72          C73   1.342       .  A
C73          C74   1.382       .  A
C73          H76   1.082       .  S
C74          C75   1.387       .  A
C74         C434   1.475       .  S
C75          H77   1.082       .  S
N78          N79   1.320       .  A
N78          C82   1.343       .  A
N79          C80   1.344       .  A
C80          C81   1.385       .  A
C80          H83   1.081       .  S
C81          C82   1.386       .  A
C81         C745   1.480       .  S
C82          H84   1.080       .  S
N85          N86   1.319       .  A
N85          C89   1.346       .  A
N85         Cu93   2.073       .  S
N86          C87   1.340       .  A
N86         Cu92   2.053       .  S
C87          C88   1.383       .  A
C87          H90   1.081       .  S
C88          C89   1.388       .  A
C88         C732   1.480       .  S
C89          H91   1.081       .  S
Cu92         N95   2.052       .  S
Cu93        N103   2.074       .  S
Cu94         N96   2.080       .  S
Cu94        N102   2.081       .  S
N95          N96   1.320       .  A
N95          C99   1.340       .  A
N96          C97   1.349       .  A
C97          C98   1.387       .  A
C97         H100   1.082       .  S
C98          C99   1.379       .  A
C98         C458   1.470       .  S
C99         H101   1.081       .  S
N102        N103   1.324       .  A
N102        C106   1.343       .  A
N103        C104   1.345       .  A
C104        C105   1.383       .  A
C104        H107   1.084       .  S
C105        C106   1.386       .  A
C105        C722   1.479       .  S
C106        H108   1.079       .  S
C109        N110   1.355       .  A
C109        N114   1.358       .  A
C109        C742   1.483       .  S
N110        C111   1.355       .  A
C111        N112   1.357       .  A
C111        C725   1.480       .  S
N112        C113   1.361       .  A
C113        N114   1.359       .  A
C113        C171   1.465       .  S
C115        N116   1.355       .  A
C115        N120   1.356   1_565  A
C115        C735   1.485       .  S
N116        C117   1.356   1_565  A
C117        N118   1.360       .  A
C117        C755   1.477   1_545  S
N118        C119   1.362       .  A
C119        N120   1.359       .  A
N121        N122   1.324       .  A
N121        C125   1.343       .  A
N121       Cu129   2.067       .  S
N122        C123   1.346       .  A
N122       Cu128   2.081       .  S
C123        C124   1.384       .  A
C123        H126   1.083       .  S
C124        C125   1.381       .  A
C124        C702   1.473       .  S
C125        H127   1.081       .  S
Cu128       N131   2.080       .  S
Cu129       N139   2.066       .  S
Cu130       N132   2.066       .  S
Cu130       N138   2.066       .  S
N131        N132   1.322       .  A
N131        C135   1.348       .  A
N132        C133   1.343       .  A
C133        C134   1.382       .  A
C133        H136   1.081       .  S
C134        C135   1.385       .  A
C134        C398   1.472       .  S
C135        H137   1.081       .  S
N138        N139   1.319       .  A
N138        C142   1.341       .  A
N139        C140   1.346       .  A
C140        C141   1.387       .  A
C140        H143   1.083       .  S
C141        C142   1.388       .  A
C141        C715   1.483       .  S
C142        H144   1.078       .  S
N145        N146   1.321       .  A
N145        C149   1.344       .  A
N145       Cu153   2.070       .  S
N146        C147   1.340       .  A
N146       Cu152   2.056       .  S
C147        C148   1.382       .  A
C147        H150   1.083       .  S
C148        C149   1.385       .  A
C148        C682   1.474       .  S
C149        H151   1.084       .  S
Cu152       N155   2.056       .  S
Cu153       N163   2.071       .  S
Cu154       N156   2.077       .  S
Cu154       N162   2.078       .  S
N155        N156   1.321       .  A
N155        C159   1.341       .  A
N156        C157   1.347       .  A
C157        C158   1.385       .  A
C157        H160   1.081       .  S
C158        C159   1.380       .  A
C158        C374   1.469       .  S
C159        H161   1.082       .  S
N162        N163   1.323       .  A
N162        C166   1.345       .  A
N163        C164   1.343       .  A
C164        C165   1.384       .  A
C164        H167   1.085       .  S
C165        C166   1.385       .  A
C165        C692   1.478   1_565  S
C166        H168   1.081       .  S
C169        N170   1.356       .  A
C169        N174   1.356       .  A
C169        C685   1.479       .  S
N170        C171   1.357       .  A
C171        N172   1.361       .  A
N172        C173   1.359       .  A
C173        N174   1.355       .  A
C173        C705   1.472       .  S
C175        N176   1.355       .  A
C175        N180   1.360       .  A
C175        C712   1.480       .  S
N176        C177   1.352       .  A
C177        N178   1.357       .  A
C177        C695   1.476   1_556  S
N178        C179   1.362       .  A
C179        N180   1.362       .  A
C179        C231   1.469       .  S
N181        N182   1.324       .  A
N181        C185   1.344       .  A
N181       Cu189   2.072       .  S
N182        C183   1.344       .  A
N182       Cu188   2.080       .  S
C183        C184   1.384       .  A
C183        H186   1.082       .  S
C184        C185   1.381       .  A
C184        C662   1.474       .  S
C185        H187   1.083       .  S
Cu188       N191   2.079       .  S
Cu189       N199   2.072       .  S
Cu190       N192   2.064       .  S
Cu190       N198   2.065       .  S
N191        N192   1.321       .  A
N191        C195   1.348       .  A
N192        C193   1.341       .  A
C193        C194   1.381       .  A
C193        H196   1.083       .  S
C194        C195   1.386       .  A
C194        C254   1.473       .  S
C195        H197   1.082       .  S
N198        N199   1.320       .  A
N198        C202   1.342       .  A
N199        C200   1.346       .  A
C200        C201   1.388       .  A
C200        H203   1.083       .  S
C201        C202   1.386       .  A
C201        C675   1.484       .  S
C202        H204   1.081       .  S
N205        N206   1.323       .  A
N205        C209   1.348       .  A
N205       Cu213   2.084       .  S
N206        C207   1.343       .  A
N206       Cu212   2.075       .  S
C207        C208   1.385       .  A
C207        H210   1.079       .  S
C208        C209   1.386       .  A
C208        C652   1.481       .  S
C209        H211   1.083       .  S
Cu212       N215   2.075       .  S
Cu213       N223   2.083       .  S
Cu214       N216   2.062       .  S
Cu214       N222   2.063       .  S
N215        N216   1.320       .  A
N215        C219   1.347       .  A
N216        C217   1.343       .  A
C217        C218   1.382       .  A
C217        H220   1.081       .  S
C218        C219   1.385       .  A
C218        C278   1.471       .  S
C219        H221   1.081       .  S
N222        N223   1.322       .  A
N222        C226   1.342       .  A
N223        C224   1.347       .  A
C224        C225   1.386       .  A
C224        H227   1.082       .  S
C225        C226   1.381       .  A
C225        C642   1.475       .  S
C226        H228   1.082       .  S
C229        N230   1.357       .  A
C229        N234   1.354       .  A
C229        C672   1.487       .  S
N230        C231   1.360       .  A
C231        N232   1.364       .  A
N232        C233   1.362       .  A
C233        N234   1.357       .  A
C233        C655   1.485       .  S
C235        N236   1.358       .  A
C235        N240   1.359       .  A
C235        C665   1.481       .  S
N236        C237   1.358       .  A
C237        N238   1.358       .  A
N238        C239   1.357       .  A
C239        N240   1.358       .  A
C239        C645   1.486       .  S
N241        N242   1.324       .  A
N241        C245   1.346       .  A
N241       Cu249   2.087       .  S
N242        C243   1.343       .  A
N242       Cu248   2.075       .  S
C243        C244   1.384       .  A
C243        H246   1.082       .  S
C244        C245   1.386       .  A
C244        C625   1.480       .  S
C245        H247   1.084       .  S
Cu248       N251   2.074       .  S
Cu249       N259   2.086       .  S
Cu250       N252   2.068       .  S
Cu250       N258   2.068       .  S
N251        N252   1.321       .  A
N251        C255   1.348       .  A
N252        C253   1.342       .  A
C253        C254   1.383       .  A
C253        H256   1.083       .  S
C254        C255   1.385       .  A
C255        H257   1.082       .  S
N258        N259   1.322       .  A
N258        C262   1.342       .  A
N259        C260   1.349       .  A
C260        C261   1.389       .  A
C260        H263   1.083       .  S
C261        C262   1.383       .  A
C261        C632   1.482       .  S
C262        H264   1.083       .  S
N265        N266   1.322       .  A
N265        C269   1.343       .  A
N265       Cu273   2.062       .  S
N266        C267   1.344       .  A
N266       Cu272   2.078       .  S
C267        C268   1.384       .  A
C267        H270   1.084       .  S
C268        C269   1.381       .  A
C268        C612   1.473       .  S
C269        H271   1.082       .  S
Cu272       N275   2.077       .  S
Cu273       N283   2.061       .  S
Cu274       N276   2.071       .  S
Cu274       N282   2.070       .  S
N275        N276   1.322       .  A
N275        C279   1.347       .  A
N276        C277   1.343       .  A
C277        C278   1.382       .  A
C277        H280   1.081       .  S
C278        C279   1.384       .  A
C279        H281   1.081       .  S
N282        N283   1.320       .  A
N282        C286   1.343       .  A
N283        C284   1.344       .  A
C284        C285   1.384       .  A
C284        H287   1.082       .  S
C285        C286   1.387       .  A
C285        C602   1.480       .  S
C286        H288   1.081       .  S
C289        N290   1.364   1_455  A
C289        N294   1.359       .  A
C289        C635   1.490       .  S
N290        C291   1.364       .  A
C291        N292   1.356       .  A
C291        C357   1.468       .  S
N292        C293   1.353       .  A
C293        N294   1.354   1_655  A
C293        C615   1.468   1_655  S
C295        N296   1.354       .  A
C295        N300   1.359       .  A
C295        C605   1.486       .  S
N296        C297   1.353       .  A
C297        N298   1.358       .  A
C297        C622   1.472       .  S
N298        C299   1.363       .  A
C299        N300   1.361       .  A
C299        C413   1.467       .  S
N301        N302   1.324       .  A
N301        C305   1.343       .  A
N301       Cu309   2.069       .  S
N302        C303   1.344       .  A
N302       Cu308   2.081       .  S
C303        C304   1.387       .  A
C303        H306   1.079       .  S
C304        C305   1.382       .  A
C304        C592   1.480       .  S
C305        H307   1.085       .  S
Cu308       N311   2.080       .  S
Cu309       N319   2.067       .  S
Cu310       N312   2.065       .  S
Cu310       N318   2.065       .  S
N311        N312   1.321       .  A
N311        C315   1.350       .  A
N312        C313   1.341       .  A
C313        C314   1.382       .  A
C313        H316   1.081       .  S
C314        C315   1.387       .  A
C315        H317   1.081       .  S
N318        N319   1.319       .  A
N318        C322   1.341       .  A
N319        C320   1.347       .  A
C320        C321   1.387       .  A
C320        H323   1.080       .  S
C321        C322   1.385       .  A
C321        C582   1.480       .  S
C322        H324   1.079       .  S
N325        N326   1.322       .  A
N325        C329   1.345       .  A
N325       Cu333   2.076       .  S
N326        C327   1.342       .  A
N326       Cu332   2.070       .  S
C327        C328   1.385       .  A
C327        H330   1.082       .  S
C328        C329   1.386       .  A
C328        C562   1.481       .  S
C329        H331   1.085       .  S
Cu332       N335   2.069       .  S
Cu333       N343   2.075       .  S
Cu334       N336   2.070       .  S
Cu334       N342   2.070       .  S
N335        N336   1.321       .  A
N335        C339   1.345       .  A
N336        C337   1.344       .  A
C337        C338   1.383       .  A
C337        H340   1.082       .  S
C338        C339   1.383       .  A
C339        H341   1.082       .  S
N342        N343   1.321       .  A
N342        C346   1.342       .  A
N343        C344   1.347       .  A
C344        C345   1.387       .  A
C344        H347   1.080       .  S
C345        C346   1.385       .  A
C345        C572   1.482       .  S
C346        H348   1.080       .  S
C349        N350   1.359       .  A
C349        N354   1.354       .  A
C349        C585   1.487       .  S
N350        C351   1.362       .  A
C351        N352   1.362       .  A
C351        C471   1.469       .  S
N352        C353   1.359       .  A
C353        N354   1.353       .  A
C353        C565   1.476       .  S
C355        N356   1.358       .  A
C355        N360   1.354       .  A
C355        C575   1.487       .  S
N356        C357   1.362       .  A
C357        N358   1.360       .  A
N358        C359   1.359       .  A
C359        N360   1.355       .  A
C359        C595   1.476   1_556  S
N361        N362   1.323       .  A
N361        C365   1.344       .  A
N361       Cu369   2.067       .  S
N362        C363   1.342       .  A
N362       Cu368   2.072       .  S
C363        C364   1.385       .  A
C363        H366   1.082       .  S
C364        C365   1.382       .  A
C364        C552   1.476       .  S
C365        H367   1.084       .  S
Cu368       N371   2.071       .  S
Cu369       N379   2.066       .  S
Cu370       N372   2.065       .  S
Cu370       N378   2.065       .  S
N371        N372   1.321       .  A
N371        C375   1.346       .  A
N372        C373   1.342       .  A
C373        C374   1.382       .  A
C373        H376   1.082       .  S
C374        C375   1.384       .  A
C375        H377   1.081       .  S
N378        N379   1.321       .  A
N378        C382   1.341       .  A
N379        C380   1.346       .  A
C380        C381   1.385       .  A
C380        H383   1.080       .  S
C381        C382   1.384       .  A
C381        C542   1.477       .  S
C382        H384   1.081       .  S
N385        N386   1.320       .  A
N385        C389   1.345       .  A
N385       Cu393   2.069       .  S
N386        C387   1.343       .  A
N386       Cu392   2.068       .  S
C387        C388   1.388       .  A
C387        H390   1.080       .  S
C388        C389   1.388       .  A
C388        C532   1.485       .  S
C389        H391   1.081       .  S
Cu392       N395   2.068       .  S
Cu393       N403   2.069       .  S
Cu394       N396   2.080       .  S
Cu394       N402   2.080       .  S
N395        N396   1.322       .  A
N395        C399   1.343       .  A
N396        C397   1.347       .  A
C397        C398   1.385       .  A
C397        H400   1.081       .  S
C398        C399   1.382       .  A
C399        H401   1.081       .  S
N402        N403   1.322       .  A
N402        C406   1.344       .  A
N403        C404   1.344       .  A
C404        C405   1.384       .  A
C404        H407   1.084       .  S
C405        C406   1.388       .  A
C405        C522   1.482       .  S
C406        H408   1.082       .  S
C409        N410   1.354       .  A
C409        N414   1.359       .  A
C409        C545   1.485       .  S
N410        C411   1.352       .  A
C411        N412   1.359       .  A
C411        C525   1.477       .  S
N412        C413   1.363       .  A
C413        N414   1.362       .  A
C415        N416   1.358       .  A
C415        N420   1.355       .  A
C415        C555   1.479   1_556  S
N416        C417   1.360   1_455  A
C417        N418   1.362   1_655  A
C417        C479   1.469       .  S
N418        C419   1.360       .  A
C419        N420   1.355       .  A
C419        C535   1.488       .  S
N421        N422   1.324       .  A
N421        C425   1.344       .  A
N421       Cu429   2.068       .  S
N422        C423   1.345       .  A
N422       Cu428   2.085       .  S
C423        C424   1.383       .  A
C423        H426   1.083       .  S
C424        C425   1.381       .  A
C424        C512   1.472       .  S
C425        H427   1.082       .  S
Cu428       N431   2.085       .  S
Cu429       N439   2.067       .  S
Cu430       N432   2.070       .  S
Cu430       N438   2.069       .  S
N431        N432   1.322       .  A
N431        C435   1.350       .  A
N432        C433   1.342       .  A
C433        C434   1.382       .  A
C433        H436   1.081       .  S
C434        C435   1.387       .  A
C435        H437   1.082       .  S
N438        N439   1.320       .  A
N438        C442   1.343       .  A
N439        C440   1.345       .  A
C440        C441   1.386       .  A
C440        H443   1.083       .  S
C441        C442   1.386       .  A
C441        C502   1.481       .  S
C442        H444   1.082       .  S
N445        N446   1.323       .  A
N445        C449   1.344       .  A
N445       Cu453   2.071       .  S
N446        C447   1.344       .  A
N446       Cu452   2.073       .  S
C447        C448   1.382       .  A
C447        H450   1.084       .  S
C448        C449   1.383       .  A
C448        C482   1.474       .  S
C449        H451   1.082       .  S
Cu452       N455   2.072       .  S
Cu453       N463   2.070       .  S
Cu454       N456   2.071       .  S
Cu454       N462   2.071       .  S
N455        N456   1.322       .  A
N455        C459   1.347       .  A
N456        C457   1.342       .  A
C457        C458   1.382       .  A
C457        H460   1.082       .  S
C458        C459   1.383       .  A
C459        H461   1.082       .  S
N462        N463   1.321       .  A
N462        C466   1.344       .  A
N463        C464   1.344       .  A
C464        C465   1.386       .  A
C464        H467   1.081       .  S
C465        C466   1.387       .  A
C465        C492   1.482       .  S
C466        H468   1.081       .  S
C469        N470   1.360       .  A
C469        N474   1.356       .  A
C469        C505   1.481       .  S
N470        C471   1.361       .  A
C471        N472   1.361       .  A
N472        C473   1.358       .  A
C473        N474   1.355       .  A
C473        C485   1.472       .  S
C475        N476   1.355       .  A
C475        N480   1.360       .  A
C475        C495   1.481       .  S
N476        C477   1.354       .  A
C477        N478   1.358       .  A
C477        C515   1.472       .  S
N478        C479   1.360       .  A
C479        N480   1.362       .  A
C481        C482   1.404       .  A
C481        C486   1.399       .  A
C481        H488   1.085       .  S
C482        C483   1.406       .  A
C483        C484   1.396       .  A
C483        F490   1.357       .  S
C484        C485   1.403       .  A
C484        H489   1.085       .  S
C485        C486   1.405       .  A
C486        F487   1.357       .  S
C491        C492   1.403   1_556  A
C491        C496   1.396       .  A
C491        H498   1.082       .  S
C492        C493   1.409       .  A
C493        C494   1.400       .  A
C493        F500   1.357       .  S
C494        C495   1.404   1_554  A
C494        H499   1.083       .  S
C495        C496   1.409       .  A
C496        F497   1.358       .  S
C501        C502   1.403       .  A
C501        C506   1.394       .  A
C501        H508   1.084       .  S
C502        C503   1.409       .  A
C503        C504   1.400       .  A
C503        F510   1.357       .  S
C504        C505   1.405       .  A
C504        H509   1.084       .  S
C505        C506   1.409       .  A
C506        F507   1.358       .  S
C511        C512   1.403       .  A
C511        C516   1.399       .  A
C511        H518   1.084       .  S
C512        C513   1.405       .  A
C513        C514   1.395       .  A
C513        F520   1.358       .  S
C514        C515   1.403       .  A
C514        H519   1.085       .  S
C515        C516   1.406       .  A
C516        F517   1.357       .  S
C521        C522   1.402       .  A
C521        C526   1.393       .  A
C521        H528   1.085       .  S
C522        C523   1.410       .  A
C523        C524   1.402       .  A
C523        F530   1.357       .  S
C524        C525   1.403       .  A
C524        H529   1.085       .  S
C525        C526   1.408       .  A
C526        F527   1.358       .  S
C531        C532   1.407       .  A
C531        C536   1.401       .  A
C531        H538   1.084       .  S
C532        C533   1.407       .  A
C533        C534   1.393       .  A
C533        F540   1.356       .  S
C534        C535   1.407       .  A
C534        H539   1.084       .  S
C535        C536   1.409       .  A
C536        F537   1.357       .  S
C541        C542   1.405       .  A
C541        C546   1.401       .  A
C541        H548   1.085       .  S
C542        C543   1.403       .  A
C543        C544   1.391       .  A
C543        F550   1.357       .  S
C544        C545   1.408       .  A
C544        H549   1.084       .  S
C545        C546   1.410       .  A
C546        F547   1.357       .  S
C551        C552   1.405       .  A
C551        C556   1.401       .  A
C551        H558   1.084       .  S
C552        C553   1.405       .  A
C553        C554   1.392       .  A
C553        F560   1.357       .  S
C554        C555   1.405       .  A
C554        H559   1.085   1_554  S
C555        C556   1.408       .  A
C556        F557   1.357   1_455  S
C561        C562   1.403       .  A
C561        C566   1.392       .  A
C561        H568   1.083       .  S
C562        C563   1.409       .  A
C563        C564   1.402       .  A
C563        F570   1.357       .  S
C564        C565   1.404       .  A
C564        H569   1.083       .  S
C565        C566   1.407       .  A
C566        F567   1.358       .  S
C571        C572   1.406       .  A
C571        C576   1.402       .  A
C571        H578   1.084       .  S
C572        C573   1.406       .  A
C573        C574   1.393       .  A
C573        F580   1.357       .  S
C574        C575   1.407       .  A
C574        H579   1.084       .  S
C575        C576   1.410       .  A
C576        F577   1.357       .  S
C581        C582   1.406       .  A
C581        C586   1.402       .  A
C581        H588   1.084       .  S
C582        C583   1.405       .  A
C583        C584   1.392       .  A
C583        F590   1.357       .  S
C584        C585   1.407       .  A
C584        H589   1.084       .  S
C585        C586   1.410       .  A
C586        F587   1.357       .  S
C591        C592   1.407       .  A
C591        C596   1.400       .  A
C591        H598   1.083       .  S
C592        C593   1.407       .  A
C593        C594   1.393       .  A
C593        F600   1.357       .  S
C594        C595   1.404       .  A
C594        H599   1.083   1_554  S
C595        C596   1.405       .  A
C596        F597   1.357       .  S
C601        C602   1.406       .  A
C601        C606   1.401       .  A
C601        H608   1.082       .  S
C602        C603   1.404       .  A
C603        C604   1.393       .  A
C603        F610   1.357       .  S
C604        C605   1.408       .  A
C604        H609   1.082       .  S
C605        C606   1.409       .  A
C606        F607   1.357       .  S
C611        C612   1.403       .  A
C611        C616   1.397   1_455  A
C611        H618   1.084       .  S
C612        C613   1.408       .  A
C613        C614   1.397       .  A
C613        F620   1.357       .  S
C614        C615   1.401       .  A
C614        H619   1.084       .  S
C615        C616   1.405   1_455  A
C616        F617   1.358       .  S
C621        C622   1.402       .  A
C621        C626   1.403       .  A
C621        H628   1.084       .  S
C622        C623   1.405       .  A
C623        C624   1.394       .  A
C623        F630   1.358       .  S
C624        C625   1.403       .  A
C624        H629   1.083       .  S
C625        C626   1.409       .  A
C626        F627   1.357       .  S
C631        C632   1.402   1_556  A
C631        C636   1.394       .  A
C631        H638   1.084       .  S
C632        C633   1.407       .  A
C633        C634   1.405       .  A
C633        F640   1.357       .  S
C634        C635   1.409   1_554  A
C634        H639   1.083   1_455  S
C635        C636   1.412       .  A
C636        F637   1.358       .  S
C641        C642   1.402       .  A
C641        C646   1.399       .  A
C641        H648   1.084       .  S
C642        C643   1.404       .  A
C643        C644   1.396       .  A
C643        F650   1.358       .  S
C644        C645   1.407       .  A
C644        H649   1.083       .  S
C645        C646   1.412       .  A
C646        F647   1.357       .  S
C651        C652   1.407       .  A
C651        C656   1.406       .  A
C651        H658   1.083       .  S
C652        C653   1.406       .  A
C653        C654   1.392       .  A
C653        F660   1.357       .  S
C654        C655   1.405       .  A
C654        H659   1.083       .  S
C655        C656   1.409       .  A
C656        F657   1.357       .  S
C661        C662   1.403       .  A
C661        C666   1.401       .  A
C661        H668   1.084       .  S
C662        C663   1.404       .  A
C663        C664   1.393       .  A
C663        F670   1.357       .  S
C664        C665   1.405       .  A
C664        H669   1.084       .  S
C665        C666   1.411       .  A
C666        F667   1.358       .  S
C671        C672   1.407       .  A
C671        C676   1.401   1_556  A
C671        H678   1.085   1_556  S
C672        C673   1.411       .  A
C673        C674   1.394       .  A
C673        F680   1.357       .  S
C674        C675   1.403   1_556  A
C674        H679   1.084       .  S
C675        C676   1.409       .  A
C676        F677   1.356       .  S
C681        C682   1.403       .  A
C681        C686   1.398       .  A
C681        H688   1.084       .  S
C682        C683   1.406       .  A
C683        C684   1.392       .  A
C683        F690   1.357       .  S
C684        C685   1.405       .  A
C684        H689   1.084       .  S
C685        C686   1.410       .  A
C686        F687   1.357       .  S
C691        C692   1.403       .  A
C691        C696   1.395       .  A
C691        H698   1.083   1_545  S
C692        C693   1.408       .  A
C693        C694   1.402       .  A
C693        F700   1.357       .  S
C694        C695   1.404       .  A
C694        H699   1.083       .  S
C695        C696   1.406       .  A
C696        F697   1.358       .  S
C701        C702   1.403       .  A
C701        C706   1.400       .  A
C701        H708   1.084       .  S
C702        C703   1.406       .  A
C703        C704   1.395       .  A
C703        F710   1.358       .  S
C704        C705   1.403       .  A
C704        H709   1.085       .  S
C705        C706   1.406       .  A
C706        F707   1.357       .  S
C711        C712   1.404   1_565  A
C711        C716   1.391       .  A
C711        H718   1.083       .  S
C712        C713   1.407       .  A
C713        C714   1.403   1_545  A
C713        F720   1.357       .  S
C714        C715   1.408       .  A
C714        H719   1.082       .  S
C715        C716   1.407       .  A
C716        F717   1.356       .  S
C721        C722   1.406       .  A
C721        C726   1.403       .  A
C721        H728   1.083       .  S
C722        C723   1.406       .  A
C723        C724   1.392       .  A
C723        F730   1.357       .  S
C724        C725   1.404       .  A
C724        H729   1.083       .  S
C725        C726   1.408       .  A
C726        F727   1.357       .  S
C731        C732   1.404       .  A
C731        C736   1.399   1_554  A
C731        H738   1.084       .  S
C732        C733   1.407   1_554  A
C733        C734   1.393       .  A
C733        F740   1.357       .  S
C734        C735   1.406       .  A
C734        H739   1.084       .  S
C735        C736   1.410       .  A
C736        F737   1.357   1_556  S
C741        C742   1.406       .  A
C741        C746   1.393       .  A
C741        H748   1.084       .  S
C742        C743   1.409       .  A
C743        C744   1.399       .  A
C743        F750   1.357       .  S
C744        C745   1.405       .  A
C744        H749   1.084       .  S
C745        C746   1.406       .  A
C746        F747   1.357       .  S
C751        C752   1.404       .  A
C751        C756   1.392       .  A
C751        H758   1.084       .  S
C752        C753   1.412   1_565  A
C753        C754   1.402       .  A
C753        F760   1.357       .  S
C754        C755   1.404   1_545  A
C754        H759   1.084       .  S
C755        C756   1.406       .  A
C756        F757   1.358       .  S
C761        C762   1.402       .  A
C761        C766   1.398       .  A
C761        H768   1.084       .  S
C762        C763   1.403       .  A
C763        C764   1.396       .  A
C763        F770   1.358       .  S
C764        C765   1.404       .  A
C764        H769   1.083       .  S
C765        C766   1.406       .  A
C766        F767   1.357       .  S
C771        C772   1.405       .  A
C771        C776   1.403       .  A
C771        H778   1.082       .  S
C772        C773   1.404       .  A
C773        C774   1.391       .  A
C773        F780   1.357       .  S
C774        C775   1.407       .  A
C774        H779   1.082       .  S
C775        C776   1.410       .  A
C776        F777   1.357       .  S
C781        C782   1.404       .  A
C781        C786   1.395       .  A
C781        H788   1.084       .  S
C782        C783   1.408       .  A
C783        C784   1.399       .  A
C783        F790   1.357       .  S
C784        C785   1.405       .  A
C784        H789   1.084       .  S
C785        C786   1.408       .  A
C786        F787   1.358       .  S
C791        C792   1.406       .  A
C791        C796   1.401       .  A
C791        H798   1.083       .  S
C792        C793   1.408       .  A
C793        C794   1.395       .  A
C793        F800   1.358       .  S
C794        C795   1.402       .  A
C794        H799   1.083       .  S
C795        C796   1.404       .  A
C796        F797   1.357       .  S
