geometry optimzed in LAMMPS
_audit_creation_date              2020-12-01 
_audit_creation_method            'lammps2cif' 
_symmetry_space_group_name_H-M    'P1' 
_symmetry_Int_Tables_number       1 
_symmetry_cell_setting            triclinic 
loop_ 
_symmetry_equiv_pos_as_xyz 
  x,y,z 
_cell_length_a                    26.88528129 
_cell_length_b                    26.882244422069594 
_cell_length_c                    24.403121556948598 
_cell_angle_alpha                 89.9971243836154 
_cell_angle_beta                  89.99391732832552 
_cell_angle_gamma                 84.33590311433161 
loop_ 
_atom_site_label 
_atom_site_type_symbol 
_atom_site_fract_x 
_atom_site_fract_y 
_atom_site_fract_z 
_atom_site_charge 
N1          N  0.08602284  0.49367145  0.89655008    -0.06700
N2          N  0.11627638  0.00797368  0.85828200    -0.58900
N3          N  0.03413124  0.39123406  0.93580256    -0.06400
N4          N  0.03685519  0.34286147  0.92531505    -0.61000
N5          N  0.00942736  0.41672384  0.89669256    -0.06000
N6          N  0.49569703  0.38629875  0.85827940    -0.58800
N7          N  0.11171246  0.46922349  0.93568327    -0.05700
N8          N  0.16007214  0.46714062  0.92527724    -0.61300
C9          C  0.16232555  0.99163714  0.87704931     0.95400
C10         C  0.51256198  0.34036843  0.87701985     0.95200
N11         N  0.00940519  0.41671657  0.10331098    -0.06900
N12         N  0.49567380  0.38628770  0.14172619    -0.59400
N13         N  0.11169670  0.46921925  0.06432850    -0.05000
N14         N  0.16005390  0.46713402  0.07473657    -0.60700
N15         N  0.08599943  0.49366339  0.10346231    -0.07000
N16         N  0.11624542  0.00795983  0.14173302    -0.59700
N17         N  0.03411682  0.39123091  0.06420035    -0.04700
N18         N  0.03684559  0.34285788  0.07468933    -0.60800
Mn19       Mn  0.07414096  0.42904129  0.00000382     1.18400
C20         C  0.51254683  0.34035998  0.12298590     0.97500
C21         C  0.16229826  0.99162409  0.12296631     0.98200
N22         N  0.42192356  0.00412448  0.89670609    -0.07000
N23         N  0.39162886  0.48987033  0.85845880    -0.63300
N24         N  0.47419437  0.10665291  0.93553385    -0.05800
N25         N  0.47249001  0.15501646  0.92514089    -0.64000
N26         N  0.49873884  0.08084571  0.89653797    -0.06500
N27         N  0.01351047  0.11098906  0.85843509    -0.63500
N28         N  0.39629203  0.02890786  0.93567291    -0.05400
N29         N  0.34792902  0.03118793  0.92520048    -0.64200
Mn30       Mn  0.50398821  0.99882663  0.89505290     1.10700
C31         C  0.34561476  0.50653174  0.87707677     0.98700
C32         C  0.99732317  0.15711355  0.87707190     0.98800
N33         N  0.49871592  0.08083856  0.10347359    -0.06500
N34         N  0.01348578  0.11097814  0.14157487    -0.61900
N35         N  0.39627668  0.02890231  0.06432932    -0.05800
N36         N  0.34791115  0.03117821  0.07479861    -0.58600
N37         N  0.42190060  0.00411560  0.10329592    -0.07100
N38         N  0.39159832  0.48985446  0.14153977    -0.61400
N39         N  0.47417959  0.10664974  0.06447807    -0.06100
N40         N  0.47247933  0.15501277  0.07486987    -0.58600
Mn41       Mn  0.00396476  0.49881884  0.10495448     1.20200
Mn42       Mn  0.43397931  0.06907953  0.00000344     1.10100
Cl43       Cl  0.00399168  0.99894835  0.00000364    -0.86600
C44         C  0.99730616  0.15710512  0.12293804     0.95700
C45         C  0.34558780  0.50651503  0.12292031     0.95500
C46         C  0.00797623  0.24822912  0.23985127     0.02200
C47         C  0.00554889  0.20348300  0.21054588    -0.13600
C48         C  0.00309440  0.20369884  0.15306532     0.00000
C49         C  0.00496269  0.24876814  0.12460747    -0.12200
C50         C  0.00822370  0.29356293  0.15318366     0.02500
C51         C  0.00881764  0.29325501  0.21068534    -0.11600
H52         H  0.00369313  0.16870512  0.23255021     0.08100
H53         H  0.00385021  0.24900058  0.08019909     0.05600
H54         H  0.01180962  0.32784991  0.23267588     0.05500
C55         C  0.00800433  0.24824137  0.76015645     0.02500
C56         C  0.00884057  0.29326704  0.78932019    -0.13600
C57         C  0.00823782  0.29357339  0.84682260     0.00000
C58         C  0.00497086  0.24877746  0.87540024    -0.12200
C59         C  0.00311004  0.20370917  0.84694392     0.02500
C60         C  0.00557359  0.20349478  0.78946403    -0.11600
H61         H  0.01183533  0.32786250  0.76732742     0.08100
H62         H  0.00385124  0.24900765  0.91980864     0.05600
H63         H  0.00372183  0.16871741  0.76746204     0.05500
C64         C  0.25396364  0.49888313  0.23986262     0.02500
C65         C  0.29886608  0.50039379  0.21062512    -0.13600
C66         C  0.29888639  0.50151935  0.15311023     0.00000
C67         C  0.25391706  0.49919649  0.12459591    -0.12200
C68         C  0.20898440  0.49666523  0.15313203     0.02500
C69         C  0.20905138  0.49747986  0.21064061    -0.11600
H70         H  0.33357469  0.50258861  0.23265180     0.08100
H71         H  0.25389583  0.49930833  0.08017051     0.05600
H72         H  0.17436486  0.49512555  0.23266985     0.05500
C73         C  0.25399737  0.49891727  0.76014372     0.02500
C74         C  0.29889931  0.50042446  0.78937371    -0.13600
C75         C  0.29891706  0.50153847  0.84688949     0.00000
C76         C  0.25394637  0.49920751  0.87541048    -0.12200
C77         C  0.20901547  0.49668125  0.84688097     0.02500
C78         C  0.20908507  0.49750687  0.78937325    -0.11600
H79         H  0.33360875  0.50262352  0.76734133     0.08100
H80         H  0.25392247  0.49931051  0.91983586     0.05600
H81         H  0.17439977  0.49515421  0.76734967     0.05500
C82         C  0.25397555  0.49882831  0.69924125    -0.04000
C83         C  0.29120300  0.46946408  0.66992590    -0.09700
C84         C  0.29104710  0.46932199  0.61259791    -0.17400
C85         C  0.25381865  0.99859349  0.58378686     0.24800
C86         C  0.21667468  0.02798779  0.61258539    -0.19100
C87         C  0.21667976  0.02808316  0.66990795    -0.08000
C88         C  0.25376628  0.99851823  0.52473072    -0.14400
C89         C  0.25376404  0.99851355  0.47527586    -0.14100
C90         C  0.25380806  0.99857850  0.41621968     0.24700
C91         C  0.21666029  0.02796888  0.38742800    -0.19500
C92         C  0.21665478  0.02805371  0.33010550    -0.08000
C93         C  0.25394411  0.49879244  0.30076511    -0.04100
C94         C  0.29117550  0.46943133  0.33007345    -0.09400
C95         C  0.29103033  0.46929986  0.38740163    -0.17000
H96         H  0.32004929  0.44611413  0.69134974     0.11100
H97         H  0.31991485  0.44632088  0.59075463     0.10400
H98         H  0.18775649  0.05091446  0.59073707     0.10300
H99         H  0.18788845  0.05152435  0.69131360     0.10800
H100        H  0.18774708  0.05090121  0.40928187     0.10900
H101        H  0.18786174  0.05149355  0.30870513     0.10900
H102        H  0.32001828  0.44607760  0.30864416     0.11000
H103        H  0.31990138  0.44630204  0.40923942     0.09800
C104        C  0.00945150  0.24799004  0.69924807    -0.04000
C105        C  0.03885508  0.21020795  0.67074939    -0.09700
C106        C  0.03994938  0.20991906  0.61342014    -0.17400
C107        C  0.01163992  0.24728305  0.58379183     0.24800
C108        C  0.98235155  0.28505514  0.61177291    -0.19100
C109        C  0.48127786  0.28547604  0.66907522    -0.08000
C110        C  0.01237581  0.24680371  0.52473355    -0.14400
C111        C  0.01236964  0.24680444  0.47527317    -0.14100
C112        C  0.01162329  0.24728055  0.41621511     0.24700
C113        C  0.98233047  0.28505016  0.38823741    -0.19500
C114        C  0.48124978  0.28546633  0.33093509    -0.08000
C115        C  0.00942085  0.24797815  0.30075946    -0.04100
C116        C  0.03882738  0.21019859  0.32925507    -0.09400
C117        C  0.03992869  0.20991446  0.38658365    -0.17000
H118        H  0.06142908  0.18120417  0.69281133     0.11100
H119        H  0.06286974  0.18056510  0.59222195     0.10400
H120        H  0.96016809  0.31408977  0.58928955     0.10300
H121        H  0.45781779  0.31470146  0.68978700     0.10800
H122        H  0.96014993  0.31408665  0.41072330     0.10900
H123        H  0.45778806  0.31469075  0.31022565     0.10900
H124        H  0.06140001  0.18119394  0.30719080     0.11000
H125        H  0.06285241  0.18056252  0.40777918     0.09800
N126        N  0.08602282  0.99367151  0.89655009    -0.06700
N127        N  0.11627641  0.50797366  0.85828199    -0.58900
N128        N  0.03413131  0.89123401  0.93580259    -0.06400
N129        N  0.03685525  0.84286148  0.92531502    -0.61000
N130        N  0.00942745  0.91672388  0.89669258    -0.06000
N131        N  0.49569704  0.88629880  0.85827944    -0.58800
N132        N  0.11171239  0.96922345  0.93568325    -0.05700
N133        N  0.16007207  0.96714050  0.92527719    -0.61300
C134        C  0.16232557  0.49163717  0.87704929     0.95400
C135        C  0.51256205  0.84036844  0.87701980     0.95200
N136        N  0.00940505  0.91671654  0.10331094    -0.06900
N137        N  0.49567374  0.88628766  0.14172615    -0.59400
N138        N  0.11169676  0.96921913  0.06432855    -0.05000
N139        N  0.16005396  0.96713392  0.07473666    -0.60700
N140        N  0.08599947  0.99366333  0.10346229    -0.07000
N141        N  0.11624538  0.50795972  0.14173312    -0.59700
N142        N  0.03411684  0.89123082  0.06420041    -0.04700
N143        N  0.03684561  0.84285786  0.07468940    -0.60800
Mn144      Mn  0.07414100  0.92904121  0.00000385     1.18400
C145        C  0.51254676  0.84035994  0.12298589     0.97500
C146        C  0.16229822  0.49162404  0.12296634     0.98200
N147        N  0.42192354  0.50412432  0.89670611    -0.07000
N148        N  0.39162891  0.98987043  0.85845874    -0.63300
N149        N  0.47419438  0.60665286  0.93553392    -0.05800
N150        N  0.47248993  0.65501637  0.92514084    -0.64000
N151        N  0.49873882  0.58084562  0.89653803    -0.06500
N152        N  0.01351035  0.61098891  0.85843502    -0.63500
N153        N  0.39629205  0.52890788  0.93567288    -0.05400
N154        N  0.34792906  0.53118805  0.92520045    -0.64200
Mn155      Mn  0.50398823  0.49882655  0.89505291     1.10700
C156        C  0.34561480  0.00653168  0.87707675     0.98700
C157        C  0.99732320  0.65711346  0.87707183     0.98800
N158        N  0.49871588  0.58083861  0.10347361    -0.06500
N159        N  0.01348585  0.61097818  0.14157482    -0.61900
N160        N  0.39627664  0.52890225  0.06432928    -0.05800
N161        N  0.34791116  0.53117822  0.07479863    -0.58600
N162        N  0.42190061  0.50411554  0.10329587    -0.07100
N163        N  0.39159834  0.98985449  0.14153978    -0.61400
N164        N  0.47417949  0.60664982  0.06447813    -0.06100
N165        N  0.47247934  0.65501285  0.07486989    -0.58600
Mn166      Mn  0.00396474  0.99881880  0.10495448     1.20200
Mn167      Mn  0.43397933  0.56907952  0.00000344     1.10100
Cl168      Cl  0.00399161  0.49894833  0.00000364    -0.86600
C169        C  0.99730623  0.65710517  0.12293803     0.95700
C170        C  0.34558781  0.00651503  0.12292028     0.95500
C171        C  0.00797622  0.74822920  0.23985128     0.02200
C172        C  0.00554898  0.70348305  0.21054592    -0.13600
C173        C  0.00309443  0.70369887  0.15306534     0.00000
C174        C  0.00496259  0.74876815  0.12460748    -0.12200
C175        C  0.00822359  0.79356294  0.15318364     0.02500
C176        C  0.00881746  0.79325509  0.21068531    -0.11600
H177        H  0.00369330  0.66870518  0.23255025     0.08100
H178        H  0.00385003  0.74900057  0.08019909     0.05600
H179        H  0.01180926  0.82785005  0.23267581     0.05500
C180        C  0.00800441  0.74824143  0.76015646     0.02500
C181        C  0.00884065  0.79326709  0.78932020    -0.13600
C182        C  0.00823780  0.79357342  0.84682260     0.00000
C183        C  0.00497074  0.74877747  0.87540021    -0.12200
C184        C  0.00311010  0.70370914  0.84694387     0.02500
C185        C  0.00557365  0.70349482  0.78946400    -0.11600
H186        H  0.01183546  0.82786255  0.76732745     0.08100
H187        H  0.00385097  0.74900765  0.91980861     0.05600
H188        H  0.00372185  0.66871745  0.76746196     0.05500
C189        C  0.25396368  0.99888302  0.23986261     0.02500
C190        C  0.29886611  0.00039374  0.21062511    -0.13600
C191        C  0.29888640  0.00151939  0.15311022     0.00000
C192        C  0.25391710  0.99919642  0.12459591    -0.12200
C193        C  0.20898443  0.99666527  0.15313202     0.02500
C194        C  0.20905140  0.99747986  0.21064061    -0.11600
H195        H  0.33357474  0.00258853  0.23265179     0.08100
H196        H  0.25389589  0.99930809  0.08017050     0.05600
H197        H  0.17436486  0.99512562  0.23266984     0.05500
C198        C  0.25399735  0.99891716  0.76014374     0.02500
C199        C  0.29889939  0.00042433  0.78937364    -0.13600
C200        C  0.29891709  0.00153839  0.84688947     0.00000
C201        C  0.25394642  0.99920752  0.87541049    -0.12200
C202        C  0.20901547  0.99668130  0.84688102     0.02500
C203        C  0.20908508  0.99750691  0.78937330    -0.11600
H204        H  0.33360865  0.00262337  0.76734132     0.08100
H205        H  0.25392254  0.99931050  0.91983587     0.05600
H206        H  0.17439972  0.99515434  0.76734975     0.05500
C207        C  0.25397550  0.99882818  0.69924125    -0.04000
C208        C  0.29120301  0.96946398  0.66992593    -0.09700
C209        C  0.29104716  0.96932199  0.61259792    -0.17400
C210        C  0.25381864  0.49859358  0.58378685     0.24800
C211        C  0.21667472  0.52798793  0.61258541    -0.19100
C212        C  0.21667982  0.52808325  0.66990795    -0.08000
C213        C  0.25376619  0.49851819  0.52473072    -0.14400
C214        C  0.25376399  0.49851347  0.47527585    -0.14100
C215        C  0.25380806  0.49857849  0.41621967     0.24700
C216        C  0.21666025  0.52796887  0.38742802    -0.19500
C217        C  0.21665479  0.52805377  0.33010552    -0.08000
C218        C  0.25394416  0.99879242  0.30076511    -0.04100
C219        C  0.29117560  0.96943141  0.33007348    -0.09400
C220        C  0.29103035  0.96929991  0.38740164    -0.17000
H221        H  0.32004920  0.94611412  0.69134973     0.11100
H222        H  0.31991507  0.94632099  0.59075468     0.10400
H223        H  0.18775649  0.55091461  0.59073712     0.10300
H224        H  0.18788846  0.55152442  0.69131369     0.10800
H225        H  0.18774705  0.55090110  0.40928189     0.10900
H226        H  0.18786180  0.55149372  0.30870515     0.10900
H227        H  0.32001839  0.94607768  0.30864421     0.11000
H228        H  0.31990143  0.94630207  0.40923950     0.09800
C229        C  0.00945158  0.74799016  0.69924808    -0.04000
C230        C  0.03885510  0.71020803  0.67074937    -0.09700
C231        C  0.03994921  0.70991910  0.61342013    -0.17400
C232        C  0.01163987  0.74728314  0.58379183     0.24800
C233        C  0.98235160  0.78505529  0.61177294    -0.19100
C234        C  0.48127774  0.78547613  0.66907527    -0.08000
C235        C  0.01237567  0.74680379  0.52473354    -0.14400
C236        C  0.01236966  0.74680444  0.47527316    -0.14100
C237        C  0.01162332  0.74728049  0.41621510     0.24700
C238        C  0.98233054  0.78505013  0.38823744    -0.19500
C239        C  0.48124971  0.78546634  0.33093512    -0.08000
C240        C  0.00942088  0.74797821  0.30075947    -0.04100
C241        C  0.03882744  0.71019865  0.32925503    -0.09400
C242        C  0.03992873  0.70991436  0.38658363    -0.17000
H243        H  0.06142910  0.68120426  0.69281130     0.11100
H244        H  0.06286946  0.68056494  0.59222185     0.10400
H245        H  0.96016814  0.81408993  0.58928960     0.10300
H246        H  0.45781769  0.81470144  0.68978703     0.10800
H247        H  0.96015012  0.81408667  0.41072338     0.10900
H248        H  0.45778797  0.81469068  0.31022579     0.10900
H249        H  0.06140016  0.68119408  0.30719071     0.11000
H250        H  0.06285239  0.68056246  0.40777904     0.09800
N251        N  0.58602283  0.49367146  0.89655008    -0.06700
N252        N  0.61627636  0.00797368  0.85828200    -0.58900
N253        N  0.53413128  0.39123405  0.93580255    -0.06400
N254        N  0.53685516  0.34286145  0.92531508    -0.61000
N255        N  0.50942750  0.41672385  0.89669252    -0.06000
N256        N  0.99569695  0.38629874  0.85827943    -0.58800
N257        N  0.61171245  0.46922349  0.93568327    -0.05700
N258        N  0.66007212  0.46714062  0.92527724    -0.61300
C259        C  0.66232552  0.99163714  0.87704931     0.95400
C260        C  0.01256201  0.34036842  0.87701983     0.95200
N261        N  0.50940510  0.41671657  0.10331096    -0.06900
N262        N  0.99567400  0.38628771  0.14172626    -0.59400
N263        N  0.61169672  0.46921923  0.06432851    -0.05000
N264        N  0.66005391  0.46713402  0.07473656    -0.60700
N265        N  0.58599945  0.49366338  0.10346234    -0.07000
N266        N  0.61624540  0.00795983  0.14173303    -0.59700
N267        N  0.53411680  0.39123092  0.06420039    -0.04700
N268        N  0.53684557  0.34285789  0.07468937    -0.60800
Mn269      Mn  0.57414099  0.42904128  0.00000384     1.18400
C270        C  0.01254693  0.34035998  0.12298592     0.97500
C271        C  0.66229824  0.99162409  0.12296631     0.98200
N272        N  0.92192365  0.00412446  0.89670606    -0.07000
N273        N  0.89162884  0.48987033  0.85845880    -0.63300
N274        N  0.97419436  0.10665289  0.93553385    -0.05800
N275        N  0.97248997  0.15501645  0.92514090    -0.64000
N276        N  0.99873886  0.08084572  0.89653798    -0.06500
N277        N  0.51351048  0.11098904  0.85843508    -0.63500
N278        N  0.89629209  0.02890785  0.93567290    -0.05400
N279        N  0.84792914  0.03118794  0.92520049    -0.64200
Mn280      Mn  0.00398826  0.99882663  0.89505290     1.10700
C281        C  0.84561473  0.50653174  0.87707677     0.98700
C282        C  0.49732323  0.15711354  0.87707190     0.98800
N283        N  0.99871591  0.08083856  0.10347358    -0.06500
N284        N  0.51348577  0.11097814  0.14157488    -0.61900
N285        N  0.89627666  0.02890231  0.06432932    -0.05800
N286        N  0.84791113  0.03117821  0.07479861    -0.58600
N287        N  0.92190059  0.00411560  0.10329592    -0.07100
N288        N  0.89159842  0.48985447  0.14153979    -0.61400
N289        N  0.97417956  0.10664974  0.06447808    -0.06100
N290        N  0.97247931  0.15501277  0.07486988    -0.58600
Mn291      Mn  0.50396474  0.49881884  0.10495449     1.20200
Mn292      Mn  0.93397932  0.06907953  0.00000344     1.10100
Cl293      Cl  0.50399166  0.99894835  0.00000364    -0.86600
C294        C  0.49730617  0.15710512  0.12293804     0.95700
C295        C  0.84558788  0.50651503  0.12292032     0.95500
C296        C  0.50797620  0.24822912  0.23985127     0.02200
C297        C  0.50554886  0.20348300  0.21054588    -0.13600
C298        C  0.50309439  0.20369884  0.15306532     0.00000
C299        C  0.50496266  0.24876814  0.12460747    -0.12200
C300        C  0.50822366  0.29356294  0.15318366     0.02500
C301        C  0.50881761  0.29325501  0.21068534    -0.11600
H302        H  0.50369311  0.16870512  0.23255021     0.08100
H303        H  0.50385018  0.24900058  0.08019909     0.05600
H304        H  0.51180959  0.32784991  0.23267588     0.05500
C305        C  0.50800431  0.24824138  0.76015646     0.02500
C306        C  0.50884055  0.29326704  0.78932019    -0.13600
C307        C  0.50823779  0.29357340  0.84682261     0.00000
C308        C  0.50497090  0.24877746  0.87540024    -0.12200
C309        C  0.50311019  0.20370915  0.84694393     0.02500
C310        C  0.50557364  0.20349478  0.78946404    -0.11600
H311        H  0.51183531  0.32786251  0.76732741     0.08100
H312        H  0.50385121  0.24900767  0.91980864     0.05600
H313        H  0.50372179  0.16871743  0.76746205     0.05500
C314        C  0.75396364  0.49888312  0.23986262     0.02500
C315        C  0.79886610  0.50039375  0.21062512    -0.13600
C316        C  0.79888644  0.50151934  0.15311023     0.00000
C317        C  0.75391710  0.49919650  0.12459591    -0.12200
C318        C  0.70898442  0.49666523  0.15313202     0.02500
C319        C  0.70905139  0.49747987  0.21064061    -0.11600
H320        H  0.83357471  0.50258851  0.23265181     0.08100
H321        H  0.75389583  0.49930833  0.08017052     0.05600
H322        H  0.67436485  0.49512555  0.23266983     0.05500
C323        C  0.75399734  0.49891727  0.76014372     0.02500
C324        C  0.79889929  0.50042446  0.78937371    -0.13600
C325        C  0.79891704  0.50153847  0.84688949     0.00000
C326        C  0.75394635  0.49920751  0.87541048    -0.12200
C327        C  0.70901545  0.49668125  0.84688097     0.02500
C328        C  0.70908505  0.49750687  0.78937325    -0.11600
H329        H  0.83360872  0.50262352  0.76734133     0.08100
H330        H  0.75392244  0.49931051  0.91983586     0.05600
H331        H  0.67439975  0.49515421  0.76734967     0.05500
C332        C  0.75397553  0.49882830  0.69924125    -0.04000
C333        C  0.79120299  0.46946407  0.66992592    -0.09700
C334        C  0.79104708  0.46932192  0.61259793    -0.17400
C335        C  0.75381869  0.99859350  0.58378685     0.24800
C336        C  0.71667481  0.02798784  0.61258540    -0.19100
C337        C  0.71667978  0.02808318  0.66990794    -0.08000
C338        C  0.75376628  0.99851821  0.52473072    -0.14400
C339        C  0.75376401  0.99851355  0.47527585    -0.14100
C340        C  0.75380804  0.99857850  0.41621968     0.24700
C341        C  0.71666027  0.02796888  0.38742800    -0.19500
C342        C  0.71665476  0.02805371  0.33010550    -0.08000
C343        C  0.75394413  0.49879244  0.30076511    -0.04100
C344        C  0.79117563  0.46943137  0.33007343    -0.09400
C345        C  0.79103037  0.46929986  0.38740162    -0.17000
H346        H  0.82004929  0.44611416  0.69134978     0.11100
H347        H  0.81991489  0.44632085  0.59075467     0.10400
H348        H  0.68775659  0.05091464  0.59073700     0.10300
H349        H  0.68788846  0.05152431  0.69131356     0.10800
H350        H  0.68774706  0.05090121  0.40928187     0.10900
H351        H  0.68786172  0.05149355  0.30870513     0.10900
H352        H  0.82001837  0.44607776  0.30864422     0.11000
H353        H  0.81990143  0.44630200  0.40923941     0.09800
C354        C  0.50945149  0.24799004  0.69924807    -0.04000
C355        C  0.53885507  0.21020793  0.67074940    -0.09700
C356        C  0.53994943  0.20991906  0.61342015    -0.17400
C357        C  0.51164006  0.24728310  0.58379183     0.24800
C358        C  0.48235163  0.28505516  0.61177290    -0.19100
C359        C  0.98127784  0.28547605  0.66907524    -0.08000
C360        C  0.51237586  0.24680371  0.52473355    -0.14400
C361        C  0.51236961  0.24680443  0.47527317    -0.14100
C362        C  0.51162327  0.24728055  0.41621511     0.24700
C363        C  0.48233048  0.28505017  0.38823741    -0.19500
C364        C  0.98124977  0.28546632  0.33093509    -0.08000
C365        C  0.50942084  0.24797815  0.30075946    -0.04100
C366        C  0.53882736  0.21019858  0.32925507    -0.09400
C367        C  0.53992867  0.20991445  0.38658365    -0.17000
H368        H  0.56142903  0.18120413  0.69281137     0.11100
H369        H  0.56286974  0.18056503  0.59222198     0.10400
H370        H  0.46016813  0.31408973  0.58928952     0.10300
H371        H  0.95781780  0.31470146  0.68978704     0.10800
H372        H  0.46014995  0.31408668  0.41072330     0.10900
H373        H  0.95778804  0.31469073  0.31022565     0.10900
H374        H  0.56139999  0.18119393  0.30719080     0.11000
H375        H  0.56285238  0.18056251  0.40777918     0.09800
N376        N  0.58602279  0.99367151  0.89655009    -0.06700
N377        N  0.61627639  0.50797366  0.85828198    -0.58900
N378        N  0.53413129  0.89123401  0.93580259    -0.06400
N379        N  0.53685523  0.84286147  0.92531503    -0.61000
N380        N  0.50942743  0.91672388  0.89669258    -0.06000
N381        N  0.99569704  0.88629879  0.85827945    -0.58800
N382        N  0.61171237  0.96922345  0.93568325    -0.05700
N383        N  0.66007205  0.96714050  0.92527719    -0.61300
C384        C  0.66232555  0.49163717  0.87704929     0.95400
C385        C  0.01256206  0.84036844  0.87701980     0.95200
N386        N  0.50940503  0.91671655  0.10331094    -0.06900
N387        N  0.99567374  0.88628765  0.14172614    -0.59400
N388        N  0.61169673  0.96921913  0.06432855    -0.05000
N389        N  0.66005394  0.96713392  0.07473666    -0.60700
N390        N  0.58599945  0.99366332  0.10346229    -0.07000
N391        N  0.61624540  0.50795972  0.14173311    -0.59700
N392        N  0.53411682  0.89123082  0.06420040    -0.04700
N393        N  0.53684559  0.84285786  0.07468939    -0.60800
Mn394      Mn  0.57414098  0.92904121  0.00000385     1.18400
C395        C  0.01254677  0.84035994  0.12298588     0.97500
C396        C  0.66229825  0.49162405  0.12296632     0.98200
N397        N  0.92192352  0.50412434  0.89670610    -0.07000
N398        N  0.89162898  0.98987042  0.85845873    -0.63300
N399        N  0.97419444  0.60665286  0.93553393    -0.05800
N400        N  0.97249011  0.65501638  0.92514091    -0.64000
N401        N  0.99873882  0.58084562  0.89653800    -0.06500
N402        N  0.51351035  0.61098893  0.85843506    -0.63500
N403        N  0.89629203  0.52890788  0.93567288    -0.05400
N404        N  0.84792904  0.53118805  0.92520045    -0.64200
Mn405      Mn  0.00398819  0.49882654  0.89505291     1.10700
C406        C  0.84561487  0.00653168  0.87707674     0.98700
C407        C  0.49732312  0.65711346  0.87707182     0.98800
N408        N  0.99871588  0.58083861  0.10347360    -0.06500
N409        N  0.51348584  0.61097818  0.14157483    -0.61900
N410        N  0.89627674  0.52890225  0.06432929    -0.05800
N411        N  0.84791122  0.53117820  0.07479866    -0.58600
N412        N  0.92190066  0.50411555  0.10329588    -0.07100
N413        N  0.89159832  0.98985449  0.14153978    -0.61400
N414        N  0.97417948  0.60664982  0.06447813    -0.06100
N415        N  0.97247931  0.65501285  0.07486990    -0.58600
Mn416      Mn  0.50396473  0.99881880  0.10495448     1.20200
Mn417      Mn  0.93397931  0.56907955  0.00000344     1.10100
Cl418      Cl  0.50399175  0.49894837  0.00000364    -0.86600
C419        C  0.49730624  0.65710518  0.12293803     0.95700
C420        C  0.84558779  0.00651503  0.12292028     0.95500
C421        C  0.50797620  0.74822921  0.23985128     0.02200
C422        C  0.50554895  0.70348305  0.21054592    -0.13600
C423        C  0.50309448  0.70369886  0.15306534     0.00000
C424        C  0.50496278  0.74876813  0.12460747    -0.12200
C425        C  0.50822364  0.79356294  0.15318364     0.02500
C426        C  0.50881743  0.79325509  0.21068532    -0.11600
H427        H  0.50369323  0.66870519  0.23255025     0.08100
H428        H  0.50385035  0.74900053  0.08019908     0.05600
H429        H  0.51180919  0.82785006  0.23267582     0.05500
C430        C  0.50800437  0.74824144  0.76015646     0.02500
C431        C  0.50884063  0.79326709  0.78932019    -0.13600
C432        C  0.50823778  0.79357342  0.84682260     0.00000
C433        C  0.50497072  0.74877747  0.87540021    -0.12200
C434        C  0.50311005  0.70370914  0.84694388     0.02500
C435        C  0.50557362  0.70349482  0.78946401    -0.11600
H436        H  0.51183543  0.82786255  0.76732744     0.08100
H437        H  0.50385095  0.74900765  0.91980861     0.05600
H438        H  0.50372182  0.66871745  0.76746196     0.05500
C439        C  0.75396365  0.99888302  0.23986261     0.02500
C440        C  0.79886609  0.00039374  0.21062511    -0.13600
C441        C  0.79888638  0.00151939  0.15311022     0.00000
C442        C  0.75391707  0.99919642  0.12459591    -0.12200
C443        C  0.70898440  0.99666527  0.15313202     0.02500
C444        C  0.70905138  0.99747986  0.21064061    -0.11600
H445        H  0.83357471  0.00258853  0.23265179     0.08100
H446        H  0.75389586  0.99930809  0.08017050     0.05600
H447        H  0.67436483  0.99512562  0.23266984     0.05500
C448        C  0.75399733  0.99891715  0.76014375     0.02500
C449        C  0.79889938  0.00042434  0.78937366    -0.13600
C450        C  0.79891711  0.00153840  0.84688949     0.00000
C451        C  0.75394642  0.99920752  0.87541050    -0.12200
C452        C  0.70901546  0.99668130  0.84688102     0.02500
C453        C  0.70908506  0.99750691  0.78937331    -0.11600
H454        H  0.83360863  0.00262337  0.76734132     0.08100
H455        H  0.75392253  0.99931051  0.91983588     0.05600
H456        H  0.67439970  0.99515434  0.76734975     0.05500
C457        C  0.75397549  0.99882816  0.69924125    -0.04000
C458        C  0.79120301  0.96946396  0.66992594    -0.09700
C459        C  0.79104718  0.96932195  0.61259793    -0.17400
C460        C  0.75381857  0.49859342  0.58378685     0.24800
C461        C  0.71667470  0.52798786  0.61258539    -0.19100
C462        C  0.71667981  0.52808324  0.66990793    -0.08000
C463        C  0.75376625  0.49851813  0.52473071    -0.14400
C464        C  0.75376416  0.49851350  0.47527585    -0.14100
C465        C  0.75380812  0.49857847  0.41621967     0.24700
C466        C  0.71666028  0.52796884  0.38742803    -0.19500
C467        C  0.71665480  0.52805372  0.33010553    -0.08000
C468        C  0.75394413  0.99879242  0.30076511    -0.04100
C469        C  0.79117558  0.96943141  0.33007348    -0.09400
C470        C  0.79103033  0.96929991  0.38740164    -0.17000
H471        H  0.82004919  0.94611410  0.69134976     0.11100
H472        H  0.81991507  0.94632093  0.59075469     0.10400
H473        H  0.68775654  0.55091457  0.59073708     0.10300
H474        H  0.68788847  0.55152444  0.69131365     0.10800
H475        H  0.68774708  0.55090108  0.40928191     0.10900
H476        H  0.68786180  0.55149366  0.30870516     0.10900
H477        H  0.82001837  0.94607768  0.30864421     0.11000
H478        H  0.81990141  0.94630207  0.40923950     0.09800
C479        C  0.50945150  0.74799015  0.69924808    -0.04000
C480        C  0.53885506  0.71020806  0.67074937    -0.09700
C481        C  0.53994918  0.70991911  0.61342014    -0.17400
C482        C  0.51163984  0.74728316  0.58379183     0.24800
C483        C  0.48235155  0.78505529  0.61177293    -0.19100
C484        C  0.98127791  0.78547616  0.66907526    -0.08000
C485        C  0.51237566  0.74680379  0.52473354    -0.14400
C486        C  0.51236964  0.74680443  0.47527316    -0.14100
C487        C  0.51162330  0.74728049  0.41621511     0.24700
C488        C  0.48233055  0.78505014  0.38823744    -0.19500
C489        C  0.98124970  0.78546633  0.33093511    -0.08000
C490        C  0.50942087  0.74797821  0.30075947    -0.04100
C491        C  0.53882742  0.71019865  0.32925503    -0.09400
C492        C  0.53992871  0.70991435  0.38658363    -0.17000
H493        H  0.56142909  0.68120431  0.69281131     0.11100
H494        H  0.56286943  0.68056495  0.59222187     0.10400
H495        H  0.46016814  0.81408998  0.58928957     0.10300
H496        H  0.95781788  0.81470158  0.68978707     0.10800
H497        H  0.46015014  0.81408669  0.41072338     0.10900
H498        H  0.95778795  0.81469065  0.31022579     0.10900
H499        H  0.56140013  0.68119406  0.30719070     0.11000
H500        H  0.56285236  0.68056245  0.40777905     0.09800
loop_ 
_geom_bond_atom_site_label_1 
_geom_bond_atom_site_label_2 
_geom_bond_distance 
_geom_bond_site_symmetry_2 
_ccdc_geom_bond_type 
N1            N7   1.316       .  A
N1          N127   1.320       .  A
N1         Mn405   2.196       .  S
N2          N126   1.320   1_545  A
N2            C9   1.352   1_545  A
N3            N5   1.316       .  A
N3            N4   1.320       .  A
N3          Mn19   2.205   1_556  S
N4          C260   1.352       .  A
N5          N256   1.320   1_455  A
N5         Mn405   2.198       .  S
N6          N255   1.320       .  A
N6           C10   1.352       .  A
N7            N8   1.320       .  A
N7          Mn19   2.206   1_556  S
N8          C134   1.353       .  A
C9          N133   1.353       .  A
C9          C202   1.473       .  S
C10         N254   1.352       .  A
C10         C307   1.472       .  S
N11          N17   1.316       .  A
N11         N262   1.320   1_455  A
N11         Mn41   2.198       .  S
N12         N261   1.320       .  A
N12          C20   1.352       .  A
N13          N14   1.320       .  A
N13          N15   1.316       .  A
N13         Mn19   2.206       .  S
N14         C146   1.353       .  A
N15         N141   1.320       .  A
N15         Mn41   2.196       .  S
N16         N140   1.320   1_545  A
N16          C21   1.352   1_545  A
N17          N18   1.320       .  A
N17         Mn19   2.205       .  S
N18         C270   1.352       .  A
Mn19       Cl168   2.528       .  S
C20         N268   1.352       .  A
C20         C300   1.472       .  S
C21         N139   1.353       .  A
C21         C193   1.473       .  S
N22          N28   1.316       .  A
N22         N148   1.320   1_545  A
N22         Mn30   2.197   1_545  S
N23         N147   1.320       .  A
N23          C31   1.352       .  A
N24          N26   1.316       .  A
N24          N25   1.321       .  A
N24         Mn42   2.209   1_556  S
N25         C282   1.354       .  A
N26         N277   1.320       .  A
N26         Mn30   2.196   1_545  S
N27         N276   1.320   1_455  A
N27          C32   1.352   1_455  A
N28          N29   1.321       .  A
N28         Mn42   2.208   1_556  S
N29         C156   1.353       .  A
Mn30        N376   2.196       .  S
Mn30        N380   2.198       .  S
Mn30       Cl293   2.561   1_556  S
C31         N154   1.353       .  A
C31          C75   1.473       .  S
C32         N275   1.354       .  A
C32          C59   1.474   1_655  S
N33          N39   1.316       .  A
N33         N284   1.320       .  A
N33        Mn416   2.196   1_545  S
N34         N283   1.320   1_455  A
N34          C44   1.352   1_455  A
N35          N36   1.321       .  A
N35          N37   1.316       .  A
N35         Mn42   2.208       .  S
N36         C170   1.353       .  A
N37         N163   1.320   1_545  A
N37        Mn416   2.197   1_545  S
N38         N162   1.320       .  A
N38          C45   1.352       .  A
N39          N40   1.321       .  A
N39         Mn42   2.209       .  S
N40         C294   1.354       .  A
Mn41        N408   2.196   1_455  S
Mn41        N412   2.197   1_455  S
Mn41       Cl168   2.561       .  S
Mn42       Cl293   2.529   1_545  S
Cl43       Mn144   2.528       .  S
Cl43       Mn280   2.561   1_554  S
Cl43       Mn166   2.561       .  S
Cl43       Mn292   2.529   1_465  S
C44         N290   1.354       .  A
C44          C48   1.474   1_655  S
C45         N161   1.353       .  A
C45          C66   1.473       .  S
C46         C115   1.487       .  S
C46          C47   1.406       .  A
C46          C51   1.406       .  A
C47          C48   1.404       .  A
C47          H52   1.084       .  S
C48          C49   1.402       .  A
C49          C50   1.402       .  A
C49          H53   1.084       .  S
C50         C270   1.472       .  S
C50          C51   1.403       .  A
C51          H54   1.084       .  S
C55         C104   1.487       .  S
C55          C56   1.406       .  A
C55          C60   1.406       .  A
C56          C57   1.403       .  A
C56          H61   1.084       .  S
C57         C260   1.472       .  S
C57          C58   1.402       .  A
C58          C59   1.402       .  A
C58          H62   1.084       .  S
C59          C60   1.404       .  A
C60          H63   1.084       .  S
C64          C93   1.486       .  S
C64          C65   1.406       .  A
C64          C69   1.406       .  A
C65          C66   1.404       .  A
C65          H70   1.084       .  S
C66          C67   1.402       .  A
C67          C68   1.402       .  A
C67          H71   1.084       .  S
C68         C146   1.473       .  S
C68          C69   1.404       .  A
C69          H72   1.084       .  S
C73          C82   1.486       .  S
C73          C74   1.406       .  A
C73          C78   1.406       .  A
C74          C75   1.404       .  A
C74          H79   1.084       .  S
C75          C76   1.402       .  A
C76          C77   1.402       .  A
C76          H80   1.084       .  S
C77         C134   1.473       .  S
C77          C78   1.404       .  A
C78          H81   1.084       .  S
C82          C83   1.407       .  A
C82         C212   1.407       .  A
C83          C84   1.399       .  A
C83          H96   1.083       .  S
C84         C210   1.400       .  A
C84          H97   1.084       .  S
C85          C86   1.400   1_565  A
C85         C209   1.400       .  A
C85          C88   1.441       .  S
C86          C87   1.399       .  A
C86          H98   1.084       .  S
C87         C207   1.407   1_545  A
C87          H99   1.083       .  S
C88          C89   1.207       .  T
C89          C90   1.441       .  S
C90          C91   1.400   1_565  A
C90         C220   1.400       .  A
C91          C92   1.399       .  A
C91         H100   1.084       .  S
C92         C218   1.407   1_545  A
C92         H101   1.083       .  S
C93          C94   1.407       .  A
C93         C217   1.407       .  A
C94          C95   1.399       .  A
C94         H102   1.083       .  S
C95         C215   1.400       .  A
C95         H103   1.084       .  S
C104        C105   1.408       .  A
C104        C359   1.407   1_455  A
C105        C106   1.399       .  A
C105        H118   1.083       .  S
C106        C107   1.400       .  A
C106        H119   1.084       .  S
C107        C108   1.400   1_455  A
C107        C110   1.441       .  S
C108        C359   1.399       .  A
C108        H120   1.084       .  S
C109        C354   1.407       .  A
C109        C358   1.399       .  A
C109        H121   1.083       .  S
C110        C111   1.207       .  T
C111        C112   1.441       .  S
C112        C113   1.400   1_455  A
C112        C117   1.400       .  A
C113        C364   1.399       .  A
C113        H122   1.084       .  S
C114        C363   1.399       .  A
C114        C365   1.407       .  A
C114        H123   1.083       .  S
C115        C116   1.408       .  A
C115        C364   1.407   1_455  A
C116        C117   1.399       .  A
C116        H124   1.083       .  S
C117        H125   1.084       .  S
N126        N132   1.316       .  A
N126       Mn280   2.196       .  S
N127        C134   1.352       .  A
N128        N130   1.316       .  A
N128        N129   1.320       .  A
N128       Mn144   2.205   1_556  S
N129        C385   1.352       .  A
N130        N381   1.320   1_455  A
N130       Mn280   2.198       .  S
N131        N380   1.320       .  A
N131        C135   1.352       .  A
N132        N133   1.320       .  A
N132       Mn144   2.206   1_556  S
C135        N379   1.352       .  A
C135        C432   1.472       .  S
N136        N142   1.316       .  A
N136        N387   1.320   1_455  A
N136       Mn166   2.198       .  S
N137        N386   1.320       .  A
N137        C145   1.352       .  A
N138        N139   1.320       .  A
N138        N140   1.316       .  A
N138       Mn144   2.206       .  S
N140       Mn166   2.196       .  S
N141        C146   1.352       .  A
N142        N143   1.320       .  A
N142       Mn144   2.205       .  S
N143        C395   1.352       .  A
C145        N393   1.352       .  A
C145        C425   1.472       .  S
N147        N153   1.316       .  A
N147       Mn155   2.197       .  S
N148        C156   1.352   1_565  A
N149        N151   1.316       .  A
N149        N150   1.321       .  A
N149       Mn167   2.209   1_556  S
N150        C407   1.354       .  A
N151        N402   1.320       .  A
N151       Mn155   2.196       .  S
N152        N401   1.320   1_455  A
N152        C157   1.352   1_455  A
N153        N154   1.321       .  A
N153       Mn167   2.208   1_556  S
Mn155       N251   2.196       .  S
Mn155       N255   2.198       .  S
Mn155      Cl418   2.561   1_556  S
C156        C200   1.473       .  S
C157        N400   1.354       .  A
C157        C184   1.474   1_655  S
N158        N409   1.320       .  A
N158        N164   1.316       .  A
N158       Mn291   2.196       .  S
N159        N408   1.320   1_455  A
N159        C169   1.352   1_455  A
N160        N161   1.321       .  A
N160        N162   1.316       .  A
N160       Mn167   2.208       .  S
N162       Mn291   2.197       .  S
N163        C170   1.352   1_565  A
N164        N165   1.321       .  A
N164       Mn167   2.209       .  S
N165        C419   1.354       .  A
Mn166       N283   2.196   1_465  S
Mn166       N287   2.197   1_465  S
Mn167      Cl418   2.529       .  S
Cl168      Mn405   2.561   1_554  S
Cl168      Mn417   2.529   1_455  S
C169        N415   1.354       .  A
C169        C173   1.474   1_655  S
C170        C191   1.473       .  S
C171        C240   1.487       .  S
C171        C172   1.406       .  A
C171        C176   1.406       .  A
C172        C173   1.404       .  A
C172        H177   1.084       .  S
C173        C174   1.402       .  A
C174        C175   1.402       .  A
C174        H178   1.084       .  S
C175        C395   1.472       .  S
C175        C176   1.403       .  A
C176        H179   1.084       .  S
C180        C229   1.487       .  S
C180        C181   1.406       .  A
C180        C185   1.406       .  A
C181        C182   1.403       .  A
C181        H186   1.084       .  S
C182        C385   1.472       .  S
C182        C183   1.402       .  A
C183        C184   1.402       .  A
C183        H187   1.084       .  S
C184        C185   1.404       .  A
C185        H188   1.084       .  S
C189        C218   1.486       .  S
C189        C190   1.406   1_565  A
C189        C194   1.406       .  A
C190        C191   1.404       .  A
C190        H195   1.084       .  S
C191        C192   1.402   1_545  A
C192        C193   1.402       .  A
C192        H196   1.084       .  S
C193        C194   1.404       .  A
C194        H197   1.084       .  S
C198        C207   1.486       .  S
C198        C199   1.406   1_565  A
C198        C203   1.406       .  A
C199        C200   1.404       .  A
C199        H204   1.084       .  S
C200        C201   1.402   1_545  A
C201        C202   1.402       .  A
C201        H205   1.084       .  S
C202        C203   1.404       .  A
C203        H206   1.084       .  S
C207        C208   1.407       .  A
C208        C209   1.399       .  A
C208        H221   1.083       .  S
C209        H222   1.084       .  S
C210        C211   1.400       .  A
C210        C213   1.441       .  S
C211        C212   1.399       .  A
C211        H223   1.084       .  S
C212        H224   1.083       .  S
C213        C214   1.207       .  T
C214        C215   1.441       .  S
C215        C216   1.400       .  A
C216        C217   1.399       .  A
C216        H225   1.084       .  S
C217        H226   1.083       .  S
C218        C219   1.407       .  A
C219        C220   1.399       .  A
C219        H227   1.083       .  S
C220        H228   1.084       .  S
C229        C230   1.408       .  A
C229        C484   1.407   1_455  A
C230        C231   1.399       .  A
C230        H243   1.083       .  S
C231        C232   1.400       .  A
C231        H244   1.084       .  S
C232        C233   1.400   1_455  A
C232        C235   1.441       .  S
C233        C484   1.399       .  A
C233        H245   1.084       .  S
C234        C479   1.407       .  A
C234        C483   1.399       .  A
C234        H246   1.083       .  S
C235        C236   1.207       .  T
C236        C237   1.441       .  S
C237        C238   1.400   1_455  A
C237        C242   1.400       .  A
C238        C489   1.399       .  A
C238        H247   1.084       .  S
C239        C488   1.399       .  A
C239        C490   1.407       .  A
C239        H248   1.083       .  S
C240        C489   1.407   1_455  A
C240        C241   1.408       .  A
C241        C242   1.399       .  A
C241        H249   1.083       .  S
C242        H250   1.084       .  S
N251        N377   1.320       .  A
N251        N257   1.316       .  A
N252        N376   1.320   1_545  A
N252        C259   1.352   1_545  A
N253        N255   1.316       .  A
N253        N254   1.320       .  A
N253       Mn269   2.205   1_556  S
N256        C260   1.352   1_655  A
N257        N258   1.320       .  A
N257       Mn269   2.206   1_556  S
N258        C384   1.353       .  A
C259        N383   1.353       .  A
C259        C452   1.473       .  S
N261        N267   1.316       .  A
N261       Mn291   2.198       .  S
N262        C270   1.352   1_655  A
N263        N264   1.320       .  A
N263        N265   1.316       .  A
N263       Mn269   2.206       .  S
N264        C396   1.353       .  A
N265        N391   1.320       .  A
N265       Mn291   2.196       .  S
N266        N390   1.320   1_545  A
N266        C271   1.352   1_545  A
N267        N268   1.320       .  A
N267       Mn269   2.205       .  S
Mn269      Cl418   2.528       .  S
C271        N389   1.353       .  A
C271        C443   1.473       .  S
N272        N398   1.320   1_545  A
N272        N278   1.316       .  A
N272       Mn280   2.197   1_645  S
N273        N397   1.320       .  A
N273        C281   1.352       .  A
N274        N276   1.316       .  A
N274        N275   1.321       .  A
N274       Mn292   2.209   1_556  S
N276       Mn280   2.196   1_645  S
N277        C282   1.352       .  A
N278        N279   1.321       .  A
N278       Mn292   2.208   1_556  S
N279        C406   1.353       .  A
C281        N404   1.353       .  A
C281        C325   1.473       .  S
C282        C309   1.474       .  S
N283        N289   1.316       .  A
N284        C294   1.352       .  A
N285        N286   1.321       .  A
N285        N287   1.316       .  A
N285       Mn292   2.208       .  S
N286        C420   1.353       .  A
N287        N413   1.320   1_545  A
N288        N412   1.320       .  A
N288        C295   1.352       .  A
N289        N290   1.321       .  A
N289       Mn292   2.209       .  S
Mn291      Cl418   2.561       .  S
Cl293      Mn394   2.528       .  S
Cl293      Mn416   2.561       .  S
C294        C298   1.474       .  S
C295        N411   1.353       .  A
C295        C316   1.473       .  S
C296        C365   1.487       .  S
C296        C297   1.406       .  A
C296        C301   1.406       .  A
C297        C298   1.404       .  A
C297        H302   1.084       .  S
C298        C299   1.402       .  A
C299        C300   1.402       .  A
C299        H303   1.084       .  S
C300        C301   1.403       .  A
C301        H304   1.084       .  S
C305        C354   1.487       .  S
C305        C306   1.406       .  A
C305        C310   1.406       .  A
C306        C307   1.403       .  A
C306        H311   1.084       .  S
C307        C308   1.402       .  A
C308        C309   1.402       .  A
C308        H312   1.084       .  S
C309        C310   1.404       .  A
C310        H313   1.084       .  S
C314        C343   1.486       .  S
C314        C315   1.406       .  A
C314        C319   1.406       .  A
C315        C316   1.404       .  A
C315        H320   1.084       .  S
C316        C317   1.402       .  A
C317        C318   1.402       .  A
C317        H321   1.084       .  S
C318        C396   1.473       .  S
C318        C319   1.404       .  A
C319        H322   1.084       .  S
C323        C332   1.486       .  S
C323        C324   1.406       .  A
C323        C328   1.406       .  A
C324        C325   1.404       .  A
C324        H329   1.084       .  S
C325        C326   1.402       .  A
C326        C327   1.402       .  A
C326        H330   1.084       .  S
C327        C384   1.473       .  S
C327        C328   1.404       .  A
C328        H331   1.084       .  S
C332        C333   1.407       .  A
C332        C462   1.407       .  A
C333        C334   1.399       .  A
C333        H346   1.083       .  S
C334        C460   1.400       .  A
C334        H347   1.084       .  S
C335        C459   1.400       .  A
C335        C336   1.400   1_565  A
C335        C338   1.441       .  S
C336        C337   1.399       .  A
C336        H348   1.084       .  S
C337        C457   1.407   1_545  A
C337        H349   1.083       .  S
C338        C339   1.207       .  T
C339        C340   1.441       .  S
C340        C341   1.400   1_565  A
C340        C470   1.400       .  A
C341        C342   1.399       .  A
C341        H350   1.084       .  S
C342        C468   1.407   1_545  A
C342        H351   1.083       .  S
C343        C467   1.407       .  A
C343        C344   1.407       .  A
C344        C345   1.399       .  A
C344        H352   1.083       .  S
C345        C465   1.400       .  A
C345        H353   1.084       .  S
C354        C355   1.408       .  A
C355        C356   1.399       .  A
C355        H368   1.083       .  S
C356        C357   1.400       .  A
C356        H369   1.084       .  S
C357        C358   1.400       .  A
C357        C360   1.441       .  S
C358        H370   1.084       .  S
C359        H371   1.083       .  S
C360        C361   1.207       .  T
C361        C362   1.441       .  S
C362        C363   1.400       .  A
C362        C367   1.400       .  A
C363        H372   1.084       .  S
C364        H373   1.083       .  S
C365        C366   1.408       .  A
C366        C367   1.399       .  A
C366        H374   1.083       .  S
C367        H375   1.084       .  S
N376        N382   1.316       .  A
N377        C384   1.352       .  A
N378        N380   1.316       .  A
N378        N379   1.320       .  A
N378       Mn394   2.205   1_556  S
N381        C385   1.352   1_655  A
N382        N383   1.320       .  A
N382       Mn394   2.206   1_556  S
N386        N392   1.316       .  A
N386       Mn416   2.198       .  S
N387        C395   1.352   1_655  A
N388        N389   1.320       .  A
N388        N390   1.316       .  A
N388       Mn394   2.206       .  S
N390       Mn416   2.196       .  S
N391        C396   1.352       .  A
N392        N393   1.320       .  A
N392       Mn394   2.205       .  S
N397        N403   1.316       .  A
N397       Mn405   2.197   1_655  S
N398        C406   1.352   1_565  A
N399        N401   1.316       .  A
N399        N400   1.321       .  A
N399       Mn417   2.209   1_556  S
N401       Mn405   2.196   1_655  S
N402        C407   1.352       .  A
N403        N404   1.321       .  A
N403       Mn417   2.208   1_556  S
C406        C450   1.473       .  S
C407        C434   1.474       .  S
N408        N414   1.316       .  A
N409        C419   1.352       .  A
N410        N411   1.321       .  A
N410        N412   1.316       .  A
N410       Mn417   2.208       .  S
N413        C420   1.352   1_565  A
N414        N415   1.321       .  A
N414       Mn417   2.209       .  S
C419        C423   1.474       .  S
C420        C441   1.473       .  S
C421        C490   1.487       .  S
C421        C422   1.406       .  A
C421        C426   1.406       .  A
C422        C423   1.404       .  A
C422        H427   1.084       .  S
C423        C424   1.402       .  A
C424        C425   1.402       .  A
C424        H428   1.084       .  S
C425        C426   1.403       .  A
C426        H429   1.084       .  S
C430        C479   1.487       .  S
C430        C431   1.406       .  A
C430        C435   1.406       .  A
C431        C432   1.403       .  A
C431        H436   1.084       .  S
C432        C433   1.402       .  A
C433        C434   1.402       .  A
C433        H437   1.084       .  S
C434        C435   1.404       .  A
C435        H438   1.084       .  S
C439        C468   1.486       .  S
C439        C440   1.406   1_565  A
C439        C444   1.406       .  A
C440        C441   1.404       .  A
C440        H445   1.084       .  S
C441        C442   1.402   1_545  A
C442        C443   1.402       .  A
C442        H446   1.084       .  S
C443        C444   1.404       .  A
C444        H447   1.084       .  S
C448        C457   1.486       .  S
C448        C449   1.406   1_565  A
C448        C453   1.406       .  A
C449        C450   1.404       .  A
C449        H454   1.084       .  S
C450        C451   1.402   1_545  A
C451        C452   1.402       .  A
C451        H455   1.084       .  S
C452        C453   1.404       .  A
C453        H456   1.084       .  S
C457        C458   1.407       .  A
C458        C459   1.399       .  A
C458        H471   1.083       .  S
C459        H472   1.084       .  S
C460        C461   1.400       .  A
C460        C463   1.441       .  S
C461        C462   1.399       .  A
C461        H473   1.084       .  S
C462        H474   1.083       .  S
C463        C464   1.207       .  T
C464        C465   1.441       .  S
C465        C466   1.400       .  A
C466        C467   1.399       .  A
C466        H475   1.084       .  S
C467        H476   1.083       .  S
C468        C469   1.407       .  A
C469        C470   1.399       .  A
C469        H477   1.083       .  S
C470        H478   1.084       .  S
C479        C480   1.408       .  A
C480        C481   1.399       .  A
C480        H493   1.083       .  S
C481        C482   1.400       .  A
C481        H494   1.084       .  S
C482        C483   1.400       .  A
C482        C485   1.441       .  S
C483        H495   1.084       .  S
C484        H496   1.083       .  S
C485        C486   1.207       .  T
C486        C487   1.441       .  S
C487        C488   1.400       .  A
C487        C492   1.400       .  A
C488        H497   1.084       .  S
C489        H498   1.083       .  S
C490        C491   1.408       .  A
C491        C492   1.399       .  A
C491        H499   1.083       .  S
C492        H500   1.084       .  S
