geometry optimzed in LAMMPS
_audit_creation_date              2020-12-01 
_audit_creation_method            'lammps2cif' 
_symmetry_space_group_name_H-M    'P1' 
_symmetry_Int_Tables_number       1 
_symmetry_cell_setting            triclinic 
loop_ 
_symmetry_equiv_pos_as_xyz 
  x,y,z 
_cell_length_a                    35.60007361 
_cell_length_b                    35.610619149080904 
_cell_length_c                    26.344009413969 
_cell_angle_alpha                 90.59097324839983 
_cell_angle_beta                  89.88459966460408 
_cell_angle_gamma                 120.23344347793122 
loop_ 
_atom_site_label 
_atom_site_type_symbol 
_atom_site_fract_x 
_atom_site_fract_y 
_atom_site_fract_z 
_atom_site_charge 
Zn1        Zn  0.43129567  0.17060892  0.94868670     1.49700
Zn2        Zn  0.36903930  0.18120913  0.03044901     1.49400
Zn3        Zn  0.47322481  0.23778178  0.03979343     1.49100
Zn4        Zn  0.42690637  0.25740692  0.95026364     1.49500
O5          O  0.42450556  0.21145715  0.99243285    -1.82100
O6          O  0.38416004  0.10991345  0.96392058    -0.72700
O7          O  0.38129963  0.18708907  0.10696963    -0.72500
O8          O  0.51427832  0.21576132  0.02818445    -0.72000
O9          O  0.33664391  0.11542880  0.01392355    -0.72700
O10         O  0.48830338  0.17239291  0.96080734    -0.72300
O11         O  0.45350399  0.22399699  0.11126105    -0.72900
O12         O  0.48188215  0.31575393  0.96341164    -0.72300
O13         O  0.33199812  0.20937968  0.01625770    -0.73000
O14         O  0.50868638  0.30262534  0.03259955    -0.72400
O15         O  0.37533661  0.26385530  0.96566327    -0.72900
O16         O  0.42364807  0.24237742  0.87552399    -0.72800
O17         O  0.42747498  0.18205802  0.87451603    -0.72600
C18         C  0.34892975  0.09240682  0.98917296     0.79200
C19         C  0.41658874  0.20417690  0.13260448     0.79700
C20         C  0.51707781  0.19093854  0.99528480     0.78600
C21         C  0.51010443  0.32867971  0.99895131     0.79000
C22         C  0.34023901  0.24306646  0.99080662     0.80200
C23         C  0.42434288  0.21157851  0.85131139     0.79200
Zn24       Zn  0.43271343  0.26163363  0.44651013     1.49700
Zn25       Zn  0.37418114  0.19058159  0.53014206     1.49400
Zn26       Zn  0.43474221  0.17355081  0.45120614     1.49100
Zn27       Zn  0.47750782  0.24426886  0.53896121     1.49500
O28         O  0.42917569  0.21700545  0.49170737    -1.82100
O29         O  0.38445110  0.27340815  0.46231709    -0.72700
O30         O  0.33870838  0.12521725  0.51464514    -0.72500
O31         O  0.43126539  0.18255936  0.37613338    -0.72000
O32         O  0.34042328  0.22200098  0.51569063    -0.72700
O33         O  0.42554283  0.24182901  0.37331206    -0.72300
O34         O  0.38426221  0.11453510  0.46677622    -0.72900
O35         O  0.51886274  0.22310431  0.52692177    -0.72300
O36         O  0.38606137  0.19642874  0.60621930    -0.73000
O37         O  0.49159665  0.17440333  0.46475242    -0.72400
O38         O  0.45821663  0.23128572  0.61120810    -0.72900
O39         O  0.51303250  0.30877689  0.52926216    -0.72800
O40         O  0.48986288  0.31856605  0.45514132    -0.72600
C41         C  0.35004018  0.25544620  0.48906358     0.79200
C42         C  0.34837979  0.09992242  0.49047171     0.79700
C43         C  0.42639435  0.21028712  0.35122053     0.78600
C44         C  0.52172234  0.19657246  0.49682802     0.79000
C45         C  0.42106083  0.21255597  0.63216353     0.80200
C46         C  0.51672721  0.33297848  0.49212362     0.79200
Zn47       Zn  0.18507536  0.81384488  0.96915715     1.49700
Zn48       Zn  0.26058703  0.82728472  0.04642868     1.49400
Zn49       Zn  0.17036709  0.73844663  0.04799383     1.49100
Zn50       Zn  0.23364075  0.75848288  0.95754747     1.49500
O51         O  0.21219469  0.78494287  0.00524731    -1.82100
O52         O  0.21809102  0.87980136  0.98348981    -0.72700
O53         O  0.24498325  0.81754526  0.12051189    -0.72500
O54         O  0.11113299  0.72727680  0.03026955    -0.72000
O55         O  0.27493288  0.88758923  0.02745705    -0.72700
O56         O  0.11960221  0.78356265  0.98490814    -0.72300
O57         O  0.18165931  0.75554723  0.12184304    -0.72900
O58         O  0.20338284  0.69379568  0.96305819    -0.72300
O59         O  0.31452872  0.82249674  0.03717207    -0.73000
O60         O  0.17102193  0.68192741  0.03770310    -0.72400
O61         O  0.29551214  0.77592920  0.97248252    -0.72900
O62         O  0.22764069  0.77363443  0.88662874    -0.72800
O63         O  0.19054180  0.80819912  0.89260444    -0.72600
C64         C  0.25539516  0.90395947  0.00391514     0.79200
C65         C  0.21305919  0.78765621  0.14471951     0.79700
C66         C  0.09531375  0.74729481  0.00678118     0.78600
C67         C  0.18367571  0.66865124  0.99982693     0.79000
C68         C  0.32288456  0.80013283  0.00603345     0.80200
C69         C  0.20915320  0.79223522  0.86583672     0.79200
Zn70       Zn  0.17600145  0.74758670  0.46282080     1.49700
Zn71       Zn  0.19048082  0.82399695  0.54281425     1.49400
Zn72       Zn  0.24426248  0.77425452  0.55128837     1.49100
Zn73       Zn  0.26419233  0.83673068  0.45998400     1.49500
O74         O  0.21831483  0.79611283  0.50439206    -1.82100
O75         O  0.11741722  0.73683313  0.48007988    -0.72700
O76         O  0.19626427  0.81854431  0.61985438    -0.72500
O77         O  0.21877836  0.71035873  0.54329008    -0.72000
O78         O  0.12450479  0.79213512  0.52757832    -0.72700
O79         O  0.17618201  0.69159580  0.47572333    -0.72300
O80         O  0.23470238  0.78536571  0.62252905    -0.72900
O81         O  0.32057939  0.83608268  0.46870791    -0.72300
O82         O  0.22106120  0.88908899  0.52545860    -0.73000
O83         O  0.30776730  0.79810844  0.53916662    -0.72400
O84         O  0.27356381  0.89626076  0.47318094    -0.72900
O85         O  0.24746838  0.82258095  0.38675261    -0.72800
O86         O  0.18471881  0.76032579  0.38802888    -0.72600
C87         C  0.10083039  0.75596791  0.50432496     0.79200
C88         C  0.21476075  0.80185473  0.64508501     0.79700
C89         C  0.19414503  0.68189272  0.51095372     0.78600
C90         C  0.33288688  0.81967092  0.50304005     0.79000
C91         C  0.25429309  0.91260196  0.49789952     0.80200
C92         C  0.21531294  0.79144093  0.36378980     0.79200
Zn93       Zn  0.81891105  0.63496079  0.03734334     1.49700
Zn94       Zn  0.74230655  0.57503415  0.95710067     1.49400
Zn95       Zn  0.82876491  0.57064935  0.95852784     1.49100
Zn96       Zn  0.76169258  0.53107729  0.04887799     1.49500
O97         O  0.78811828  0.57841559  0.00070339    -1.82100
O98         O  0.79153309  0.67180550  0.02030443    -0.72700
O99         O  0.75690169  0.57581641  0.88322396    -0.72500
O100        O  0.88899469  0.61852367  0.97338001    -0.72000
O101        O  0.73658719  0.62734692  0.96964294    -0.72700
O102        O  0.88439617  0.66710607  0.02247447    -0.72300
O103        O  0.81756288  0.57297455  0.88411030    -0.72900
O104        O  0.78547737  0.49079184  0.04046020    -0.72300
O105        O  0.68409820  0.52045235  0.96904870    -0.73000
O106        O  0.82707970  0.51396311  0.97224464    -0.72400
O107        O  0.69721873  0.49346275  0.03783920    -0.72900
O108        O  0.77179018  0.55365540  0.12028646    -0.72800
O109        O  0.81275405  0.62538737  0.11358040    -0.72600
C110        C  0.75806329  0.66320419  0.99382415     0.79200
C111        C  0.78779238  0.57503924  0.85981839     0.79700
C112        C  0.90701408  0.65433710  0.99799337     0.78600
C113        C  0.80921632  0.48635219  0.00752074     0.79000
C114        C  0.67131413  0.49177576  0.00350472     0.80200
C115        C  0.79264426  0.59135337  0.14047677     0.79200
Zn116      Zn  0.76966099  0.53457499  0.45008259     1.49700
Zn117      Zn  0.82437908  0.63965702  0.46292054     1.49400
Zn118      Zn  0.74786911  0.57949204  0.54095376     1.49100
Zn119      Zn  0.83480591  0.57623707  0.54159813     1.49500
O120        O  0.79436207  0.58301786  0.49851023    -1.82100
O121        O  0.77887751  0.55672486  0.37946313    -0.72700
O122        O  0.79717524  0.67725563  0.48141208    -0.72500
O123        O  0.69011209  0.52513109  0.52620721    -0.72000
O124        O  0.81709160  0.62886572  0.38631601    -0.72700
O125        O  0.70525575  0.49650147  0.45958268    -0.72300
O126        O  0.74208251  0.63180163  0.52991468    -0.72900
O127        O  0.82263179  0.57856783  0.61567660    -0.72300
O128        O  0.88991544  0.67188378  0.47859446    -0.73000
O129        O  0.76087038  0.57930293  0.61521527    -0.72400
O130        O  0.89488814  0.62428981  0.52802981    -0.72900
O131        O  0.83371628  0.51971268  0.52838738    -0.72800
O132        O  0.79458545  0.49479352  0.45790847    -0.72600
C133        C  0.79764250  0.59416457  0.35944296     0.79200
C134        C  0.76338465  0.66814663  0.50756240     0.79700
C135        C  0.67841156  0.49567581  0.49210620     0.78600
C136        C  0.79175268  0.57917335  0.63930824     0.79000
C137        C  0.91260686  0.65980862  0.50372565     0.80200
C138        C  0.81761377  0.49160712  0.49267597     0.79200
Zn139      Zn  0.63680404  0.81702368  0.03797523     1.49700
Zn140      Zn  0.57808003  0.74142171  0.95635648     1.49400
Zn141      Zn  0.53315406  0.75484662  0.05082411     1.49100
Zn142      Zn  0.57037685  0.82614883  0.96352153     1.49500
O143        O  0.58006484  0.78532231  0.00243889    -1.82100
O144        O  0.67336665  0.78902745  0.02162791    -0.72700
O145        O  0.52338761  0.68238592  0.96464590    -0.72500
O146        O  0.55630453  0.77042881  0.12198678    -0.72000
O147        O  0.63038766  0.73567036  0.96820187    -0.72700
O148        O  0.62777585  0.81378157  0.11441722    -0.72300
O149        O  0.50027025  0.68954918  0.04033661    -0.72900
O150        O  0.51341314  0.82226925  0.98195737    -0.72300
O151        O  0.57989345  0.75878505  0.88413881    -0.73000
O152        O  0.48743415  0.77161812  0.04152655    -0.72400
O153        O  0.57039641  0.81556453  0.88790664    -0.72900
O154        O  0.61900047  0.88693140  0.97540793    -0.72800
O155        O  0.66925172  0.88177413  0.01960123    -0.72600
C156        C  0.66550133  0.75629965  0.99374033     0.79200
C157        C  0.49697321  0.66638486  0.00157380     0.79700
C158        C  0.59380166  0.79414518  0.14176603     0.78600
C159        C  0.48367231  0.79817327  0.01299236     0.79000
C160        C  0.57575632  0.78814567  0.86221337     0.80200
C161        C  0.65654685  0.90450911  0.99580131     0.79200
Zn162      Zn  0.58211468  0.74818335  0.54401262     1.49700
Zn163      Zn  0.64223308  0.82345197  0.46534514     1.49400
Zn164      Zn  0.53734405  0.76807694  0.45247603     1.49100
Zn165      Zn  0.57745567  0.83394492  0.54382857     1.49500
O166        O  0.58540642  0.79367142  0.50100710    -1.82100
O167        O  0.63382798  0.74112674  0.53212686    -0.72700
O168        O  0.63224188  0.81815625  0.38823987    -0.72500
O169        O  0.49938962  0.70372232  0.46255949    -0.72000
O170        O  0.67922276  0.79549668  0.48282475    -0.72700
O171        O  0.52669864  0.69128301  0.53182431    -0.72300
O172        O  0.56020494  0.77992423  0.38210451    -0.72900
O173        O  0.52067806  0.83147098  0.53017157    -0.72300
O174        O  0.67411771  0.88884482  0.48253469    -0.73000
O175        O  0.49608012  0.79127286  0.46022624    -0.72400
O176        O  0.62507831  0.89404618  0.53000079    -0.72900
O177        O  0.57850829  0.82268958  0.61829399    -0.72800
O178        O  0.58214713  0.76249440  0.61787268    -0.72600
C179        C  0.67003237  0.76190312  0.50903697     0.79200
C180        C  0.59750234  0.80017560  0.36151207     0.79700
C181        C  0.49740663  0.67853533  0.49770227     0.78600
C182        C  0.49238814  0.81422661  0.49503445     0.79000
C183        C  0.66114714  0.91163698  0.50649019     0.80200
C184        C  0.58022395  0.79263193  0.64191632     0.79200
Zn185      Zn  0.83469802  0.26048878  0.95820323     1.49700
Zn186      Zn  0.81727284  0.18122364  0.03275969     1.49400
Zn187      Zn  0.76616614  0.23293304  0.04646738     1.49100
Zn188      Zn  0.74510874  0.17019328  0.95188907     1.49500
O189        O  0.79116850  0.21106921  0.99715403    -1.82100
O190        O  0.89424648  0.27142377  0.97803230    -0.72700
O191        O  0.81113223  0.18468543  0.10924744    -0.72500
O192        O  0.78842036  0.29619609  0.03769220    -0.72000
O193        O  0.88262881  0.21209238  0.01945928    -0.72700
O194        O  0.83267048  0.31605098  0.97189149    -0.72300
O195        O  0.77890326  0.22410428  0.11762368    -0.72900
O196        O  0.68910599  0.17132965  0.96291266    -0.72300
O197        O  0.78640447  0.11657586  0.01443519    -0.73000
O198        O  0.70205695  0.20600501  0.03683610    -0.72400
O199        O  0.73282709  0.10957181  0.96487241    -0.72900
O200        O  0.76344309  0.18347874  0.87855246    -0.72800
O201        O  0.82518981  0.24711375  0.88264369    -0.72600
C202        C  0.90826759  0.24928288  0.00049625     0.79200
C203        C  0.79628787  0.20386950  0.13674553     0.79700
C204        C  0.81286294  0.32490522  0.00612634     0.78600
C205        C  0.67652929  0.18541441  0.00011707     0.79000
C206        C  0.75181953  0.09284741  0.98878427     0.80200
C207        C  0.79572024  0.21529409  0.85708933     0.79200
Zn208      Zn  0.75013456  0.17533373  0.45418661     1.49700
Zn209      Zn  0.77668555  0.24486880  0.54306445     1.49400
Zn210      Zn  0.82421398  0.18950808  0.53578352     1.49100
Zn211      Zn  0.84005102  0.26279542  0.45206253     1.49500
O212        O  0.79815205  0.21772487  0.49639927    -1.82100
O213        O  0.69538800  0.17901954  0.46372132    -0.72700
O214        O  0.78586048  0.23593200  0.61549919    -0.72500
O215        O  0.79206502  0.12372159  0.52094285    -0.72000
O216        O  0.71352503  0.22165399  0.53171909    -0.72700
O217        O  0.73648343  0.11602055  0.47423472    -0.72300
O218        O  0.81753449  0.19591599  0.61229130    -0.72900
O219        O  0.89916680  0.27249612  0.46824645    -0.72300
O220        O  0.80339660  0.30863355  0.53175813    -0.73000
O221        O  0.88961778  0.21970066  0.52082802    -0.72400
O222        O  0.83979847  0.31979109  0.45981213    -0.72900
O223        O  0.82849380  0.24402835  0.37873565    -0.72800
O224        O  0.76578543  0.18193618  0.37961451    -0.72600
C225        C  0.68574254  0.19807755  0.49819850     0.79200
C226        C  0.80202031  0.21573911  0.63761878     0.79700
C227        C  0.75553870  0.09973237  0.49879224     0.78600
C228        C  0.91430572  0.25309515  0.49428871     0.79000
C229        C  0.82486171  0.33317549  0.49526562     0.80200
C230        C  0.79812851  0.21132598  0.35549007     0.79200
Zn231      Zn  0.26216904  0.42192646  0.04505387     1.49700
Zn232      Zn  0.24085657  0.46841742  0.95627236     1.49400
Zn233      Zn  0.18363923  0.36396974  0.96550685     1.49100
Zn234      Zn  0.17486375  0.42644956  0.04705161     1.49500
O235        O  0.21545166  0.41980798  0.00328657    -1.82100
O236        O  0.32064609  0.47605650  0.03010848    -0.72700
O237        O  0.22579029  0.44686241  0.88474665    -0.72500
O238        O  0.21276941  0.32795714  0.97693633    -0.72000
O239        O  0.30628969  0.50478788  0.96383502    -0.72700
O240        O  0.26735143  0.36886726  0.03020477    -0.72300
O241        O  0.18624404  0.37487787  0.88942133    -0.72900
O242        O  0.11420285  0.37730078  0.03634821    -0.72300
O243        O  0.21765753  0.50904103  0.96821308    -0.73000
O244        O  0.11878583  0.33049219  0.98437973    -0.72400
O245        O  0.17404242  0.48175500  0.03444996    -0.72900
O246        O  0.18973123  0.42696895  0.12002658    -0.72800
O247        O  0.24994362  0.42319918  0.12010268    -0.72600
C248        C  0.33308847  0.50523198  0.99617414     0.79200
C249        C  0.20399589  0.40967652  0.86354968     0.79700
C250        C  0.24608450  0.33490764  0.00262301     0.78600
C251        C  0.09612572  0.34155593  0.01164162     0.79000
C252        C  0.19218727  0.51085149  0.00085804     0.80200
C253        C  0.22000481  0.42558046  0.14390672     0.79200
Zn254      Zn  0.26467490  0.43447085  0.46227012     1.49700
Zn255      Zn  0.17621764  0.43466566  0.46239192     1.49400
Zn256      Zn  0.19060966  0.37251532  0.54000084     1.49100
Zn257      Zn  0.24269487  0.47649252  0.55479414     1.49500
O258        O  0.21800138  0.42906094  0.50523976    -1.82100
O259        O  0.25048698  0.43205072  0.38874886    -0.72700
O260        O  0.11675222  0.38360535  0.47385707    -0.72500
O261        O  0.22255329  0.33901280  0.52352435    -0.72000
O262        O  0.18946709  0.43409848  0.38786398    -0.72700
O263        O  0.27607301  0.38601128  0.47430815    -0.72300
O264        O  0.12585641  0.33770579  0.52210163    -0.72900
O265        O  0.22789932  0.45352808  0.62581218    -0.75900
O266        O  0.17517646  0.49020768  0.47752179    -0.73000
O267        O  0.19303605  0.38167191  0.61637299    -0.72400
O268        O  0.21878940  0.51610408  0.54435698    -0.72900
O269        O  0.30781013  0.51556870  0.54632046    -0.72800
O270        O  0.31974690  0.49077304  0.47413104    -0.72600
C271        C  0.21996335  0.43254838  0.36443581     0.79200
C272        C  0.10143808  0.34756773  0.49692802     0.79700
C273        C  0.25692119  0.35003296  0.49759201     0.78600
C274        C  0.20808560  0.41552707  0.64456906     0.79000
C275        C  0.19384181  0.51903459  0.51214764     0.80200
C276        C  0.33277537  0.51893806  0.50973620     0.79200
C277        C  0.20047056  0.37546291  0.72577937     0.25700
C278        C  0.20252036  0.41108953  0.70038153    -0.22500
C279        C  0.20033848  0.44348043  0.72907731     0.20600
C280        C  0.19897111  0.44180863  0.78197559     0.25600
C281        C  0.19977414  0.40774700  0.80756790    -0.22400
C282        C  0.19910758  0.37381154  0.77898585     0.20500
F283        F  0.19943177  0.34022014  0.80248120    -0.12400
F284        F  0.20188830  0.34327426  0.69933898    -0.14700
F285        F  0.19678880  0.47366569  0.80827943    -0.14700
F286        F  0.19931151  0.47685937  0.70592912    -0.12400
C287        C  0.25560925  0.43310262  0.28148801     0.25700
C288        C  0.22015295  0.43105982  0.30800750    -0.22500
C289        C  0.18473849  0.42718585  0.27988546     0.20600
C290        C  0.18469366  0.42519095  0.22692076     0.25600
C291        C  0.22006779  0.42710219  0.20036065    -0.22400
C292        C  0.25557506  0.43112740  0.22845821     0.20500
F293        F  0.29068646  0.43363188  0.20484705    -0.12400
F294        F  0.29085122  0.43736632  0.30663637    -0.14700
F295        F  0.14947680  0.42108126  0.20187430    -0.14700
F296        F  0.14972574  0.42498243  0.30340688    -0.12400
C297        C  0.98482998  0.27260725  0.53786178     0.25700
C298        C  0.96196586  0.27103958  0.49360198    -0.22500
C299        C  0.98555171  0.29091427  0.44931822     0.20600
C300        C  0.03093902  0.31393346  0.44995985     0.25600
C301        C  0.05388463  0.31745475  0.49479536    -0.22400
C302        C  0.03049096  0.29565264  0.53844042     0.20500
F303        F  0.05170286  0.29938119  0.58264253    -0.12400
F304        F  0.96311642  0.25461603  0.58150912    -0.14700
F305        F  0.05254544  0.33360516  0.40680220    -0.14700
F306        F  0.96458669  0.28881018  0.40542139    -0.12400
C307        C  0.97778268  0.30579456  0.03848581     0.25700
C308        C  0.95562673  0.26898043  0.00716261    -0.22500
C309        C  0.97927768  0.25325534  0.98082707     0.20600
C310        C  0.02493889  0.27563143  0.98359607     0.25600
C311        C  0.04763786  0.31398252  0.01328819    -0.22400
C312        C  0.02308808  0.32779114  0.04207634     0.20500
F313        F  0.04270469  0.36338894  0.07292700    -0.12400
F314        F  0.95536566  0.32086011  0.06533505    -0.14700
F315        F  0.04676624  0.26039164  0.95598352    -0.14700
F316        F  0.95828040  0.21738641  0.95065198    -0.12400
C317        C  0.80640435  0.25250353  0.77414564     0.25700
C318        C  0.79870665  0.21553899  0.80114892    -0.22500
C319        C  0.79304421  0.17870158  0.77423641     0.20600
C320        C  0.79551720  0.17903418  0.72105891     0.25600
C321        C  0.80246193  0.21582710  0.69391310    -0.22400
C322        C  0.80776915  0.25250294  0.72109517     0.20500
F323        F  0.81451458  0.28861259  0.69627044    -0.12400
F324        F  0.81099691  0.28814007  0.79911932    -0.14700
F325        F  0.78953411  0.14286101  0.69611503    -0.14700
F326        F  0.78555968  0.14255339  0.79953328    -0.12400
C327        C  0.82677465  0.24341366  0.21774749     0.25700
C328        C  0.80006003  0.20406168  0.19222401    -0.22500
C329        C  0.77449369  0.16629497  0.22018144     0.20600
C330        C  0.77432790  0.16824722  0.27335745     0.25600
C331        C  0.80020194  0.20809852  0.29932168    -0.22400
C332        C  0.82728177  0.24544046  0.27072022     0.20500
F333        F  0.85317341  0.28446880  0.29373187    -0.12400
F334        F  0.85199969  0.28018353  0.19113036    -0.14700
F335        F  0.74859303  0.13120557  0.29924334    -0.14700
F336        F  0.74830862  0.12796015  0.19592070    -0.12400
C337        C  0.44039933  0.61719469  0.54831754     0.25700
C338        C  0.45855185  0.63467791  0.50075116    -0.22500
C339        C  0.43636315  0.61225979  0.45641734     0.20600
C340        C  0.39626938  0.57378149  0.45950631     0.25600
C341        C  0.37716701  0.55723390  0.50706763    -0.22400
C342        C  0.39987611  0.57911808  0.55143663     0.20500
F343        F  0.38256316  0.56410411  0.59791357    -0.12400
F344        F  0.46056646  0.63839537  0.59191250    -0.14700
F345        F  0.37504609  0.55411940  0.41573439    -0.14700
F346        F  0.45306724  0.62808661  0.40993232    -0.12400
C347        C  0.75549363  0.02868085  0.50246756     0.25700
C348        C  0.73293756  0.05174346  0.50256854    -0.22500
C349        C  0.68726776  0.02838402  0.50508436     0.20600
C350        C  0.66455739  0.98319315  0.50678312     0.25600
C351        C  0.68675652  0.95979905  0.50562704    -0.22400
C352        C  0.73251472  0.98294911  0.50344543     0.20500
F353        F  0.75494699  0.96141795  0.50301087    -0.12400
F354        F  0.79955248  0.05026176  0.49997300    -0.14700
F355        F  0.62042284  0.96228508  0.50814936    -0.14700
F356        F  0.66427063  0.04938072  0.50651122    -0.12400
C357        C  0.40276960  0.55722547  0.04138470     0.25700
C358        C  0.37891641  0.54194778  0.99577576    -0.22500
C359        C  0.39772680  0.56497536  0.95079488     0.20600
C360        C  0.43789800  0.60386480  0.95204328     0.25600
C361        C  0.45980438  0.62102109  0.99843914    -0.22400
C362        C  0.44251497  0.59651151  0.04274805     0.20500
F363        F  0.46350114  0.61130387  0.08787602    -0.12400
F364        F  0.38633253  0.53576229  0.08550500    -0.14700
F365        F  0.45371760  0.62625950  0.90831126    -0.14700
F366        F  0.37661514  0.55056717  0.90566362    -0.12400
C367        C  0.67804393  0.97449526  0.95175372     0.25700
C368        C  0.68514261  0.95244814  0.99135267    -0.22500
C369        C  0.71784142  0.97702722  0.02741569     0.20600
C370        C  0.74098268  0.02267043  0.02557997     0.25600
C371        C  0.73195426  0.04467091  0.98755503    -0.22400
C372        C  0.70104327  0.01981555  0.94987648     0.20500
F373        F  0.69245014  0.03928850  0.91114126    -0.12400
F374        F  0.64839601  0.95219963  0.91462300    -0.14700
F375        F  0.77066815  0.04521909  0.06253571    -0.14700
F376        F  0.72601208  0.95712057  0.06597382    -0.12400
C377        C  0.59145247  0.76554829  0.77788094     0.25700
C378        C  0.57740682  0.79016959  0.80585007    -0.22500
C379        C  0.56491626  0.81631074  0.77922208     0.20600
C380        C  0.56599794  0.81735015  0.72609698     0.25600
C381        C  0.57971190  0.79238229  0.69827778    -0.22400
C382        C  0.59245237  0.76654235  0.72495995     0.20500
F383        F  0.60651758  0.74238027  0.69999900    -0.12400
F384        F  0.60488935  0.74064502  0.80155968    -0.14700
F385        F  0.55258481  0.84211136  0.70202388    -0.14700
F386        F  0.55089710  0.84043806  0.80434407    -0.12400
C387        C  0.63571501  0.80820464  0.27770967     0.25700
C388        C  0.59929043  0.80260977  0.30523955    -0.22500
C389        C  0.56289303  0.79763011  0.27825378     0.20600
C390        C  0.56179749  0.79573966  0.22542833     0.25600
C391        C  0.59717310  0.79915296  0.19779206    -0.22400
C392        C  0.63467586  0.80654008  0.22436442     0.20500
F393        F  0.66963196  0.81040093  0.19891009    -0.12400
F394        F  0.67164672  0.81364345  0.30225728    -0.14700
F395        F  0.52596105  0.79100003  0.20127529    -0.14700
F396        F  0.52806247  0.79484052  0.30297049    -0.12400
C397        C  0.83358555  0.39989238  0.53885534     0.25700
C398        C  0.82992930  0.37706097  0.49349559    -0.22500
C399        C  0.82547505  0.39396171  0.44734504     0.20600
C400        C  0.82245359  0.43172003  0.44685368     0.25600
C401        C  0.82462463  0.45381185  0.49245035    -0.22400
C402        C  0.83128248  0.43797025  0.53835108     0.20500
F403        F  0.83315936  0.45789693  0.58328242    -0.12400
F404        F  0.83837825  0.38472248  0.58404842    -0.14700
F405        F  0.81661032  0.44618566  0.40173292    -0.14700
F406        F  0.82121404  0.37243187  0.40295345    -0.12400
C407        C  0.75483815  0.73023684  0.47447214     0.25700
C408        C  0.74681676  0.69907471  0.51195120    -0.22500
C409        C  0.71888815  0.69459257  0.55231554     0.20600
C410        C  0.69624339  0.71711756  0.55262171     0.25600
C411        C  0.70075965  0.74504164  0.51261404    -0.22400
C412        C  0.73200090  0.75305727  0.47481365     0.20500
F413        F  0.73870377  0.78100926  0.43658940    -0.12400
F414        F  0.78278255  0.73685178  0.43590035    -0.14700
F415        F  0.66886908  0.71053514  0.59188358    -0.14700
F416        F  0.71240549  0.66731744  0.59131015    -0.12400
C417        C  0.83790631  0.43921795  0.97201105     0.25700
C418        C  0.81454933  0.44742555  0.00962456    -0.22500
C419        C  0.79409287  0.41655612  0.04821081     0.20600
C420        C  0.79495784  0.37782690  0.04782518     0.25600
C421        C  0.81642660  0.36848697  0.00888717    -0.22400
C422        C  0.83880315  0.40024405  0.97163845     0.20500
F423        F  0.86062023  0.39327590  0.93382527    -0.12400
F424        F  0.85910645  0.46832103  0.93463611    -0.14700
F425        F  0.77359477  0.34905150  0.08546163    -0.14700
F426        F  0.77206492  0.42304277  0.08620630    -0.12400
C427        C  0.69858835  0.71881767  0.94718559     0.25700
C428        C  0.69664379  0.74029717  0.99136364    -0.22500
C429        C  0.72086909  0.74175696  0.03431046     0.20600
C430        C  0.74355104  0.71895937  0.03431779     0.25600
C431        C  0.74225837  0.69444156  0.99140019    -0.22400
C432        C  0.72106010  0.69612728  0.94723108     0.20500
F433        F  0.72093778  0.67458819  0.90431267    -0.12400
F434        F  0.67752023  0.71862804  0.90416096    -0.14700
F435        F  0.76380581  0.71809865  0.07753158    -0.14700
F436        F  0.71988768  0.76234968  0.07752123    -0.12400
C437        C  0.76079917  0.58584068  0.77597611     0.25700
C438        C  0.78918517  0.57667464  0.80340088    -0.22500
C439        C  0.81900271  0.56923890  0.77619815     0.20600
C440        C  0.82017822  0.57055456  0.72319051     0.25600
C441        C  0.79144883  0.57919997  0.69575503    -0.22400
C442        C  0.76196444  0.58713136  0.72295082     0.20500
F443        F  0.73428096  0.59661853  0.69843895    -0.12400
F444        F  0.73193672  0.59400251  0.80026659    -0.14700
F445        F  0.84916013  0.56257058  0.69890227    -0.14700
F446        F  0.84685646  0.55996094  0.80064940    -0.12400
C447        C  0.83026659  0.62700157  0.22260896     0.25700
C448        C  0.79323882  0.59504647  0.19647334    -0.22500
C449        C  0.75700291  0.56494523  0.22448494     0.20600
C450        C  0.75827396  0.56568130  0.27739907     0.25600
C451        C  0.79580362  0.59651971  0.30361929    -0.22400
C452        C  0.83153324  0.62772405  0.27584302     0.20500
F453        F  0.86844697  0.65743228  0.30007511    -0.12400
F454        F  0.86602191  0.65610276  0.19669197    -0.14700
F455        F  0.72251759  0.53621676  0.30310103    -0.14700
F456        F  0.72006356  0.53478510  0.20061316    -0.12400
C457        C  0.39817970  0.82461250  0.54505973     0.25700
C458        C  0.37624981  0.82350377  0.50023467    -0.22500
C459        C  0.39392466  0.82134369  0.45315003     0.20600
C460        C  0.43204312  0.81893725  0.45113340     0.25600
C461        C  0.45364590  0.81952378  0.49614015    -0.22400
C462        C  0.43655285  0.82298663  0.54304370     0.20500
F463        F  0.45571302  0.82247361  0.58734909    -0.12400
F464        F  0.38203252  0.82652519  0.59114700    -0.14700
F465        F  0.44753065  0.81559965  0.40517735    -0.14700
F466        F  0.37302719  0.81908028  0.40915373    -0.12400
C467        C  0.20563541  0.58728632  0.55556834     0.25700
C468        C  0.18829220  0.55780019  0.51437523    -0.22500
C469        C  0.16851399  0.56759135  0.47427292     0.20600
C470        C  0.16848725  0.60697217  0.47403684     0.25600
C471        C  0.18829882  0.63752977  0.51383936    -0.22400
C472        C  0.20555706  0.62639080  0.55535606     0.20500
F473        F  0.22356111  0.65378445  0.59573372    -0.12400
F474        F  0.22388204  0.57905762  0.59602658    -0.14700
F475        F  0.15052555  0.61572736  0.43373820    -0.14700
F476        F  0.15070821  0.54000344  0.43407002    -0.12400
C477        C  0.02930062  0.75533030  0.50328745     0.25700
C478        C  0.05276955  0.73331093  0.50644417    -0.22500
C479        C  0.02978816  0.68767325  0.50906385     0.20600
C480        C  0.98460713  0.66441486  0.50784168     0.25600
C481        C  0.96077895  0.68600817  0.50404975    -0.22400
C482        C  0.98352184  0.73176401  0.50156348     0.20500
F483        F  0.96152219  0.75361193  0.49819365    -0.12400
F484        F  0.05057230  0.79933084  0.50036340    -0.14700
F485        F  0.96420697  0.62032229  0.50906505    -0.14700
F486        F  0.05119102  0.66522463  0.51324608    -0.12400
C487        C  0.40421453  0.83958892  0.01314936     0.25700
C488        C  0.36431340  0.80041147  0.00990989    -0.22500
C489        C  0.36393362  0.76074362  0.01007834     0.20600
C490        C  0.40282919  0.76021338  0.01294050     0.25600
C491        C  0.44287970  0.79936730  0.01423802    -0.22400
C492        C  0.44333345  0.83908615  0.01442780     0.20500
F493        F  0.48161202  0.87729683  0.01636499    -0.12400
F494        F  0.40532712  0.87825512  0.01334881    -0.14700
F495        F  0.40141615  0.72136841  0.01247435    -0.14700
F496        F  0.32573563  0.72238812  0.00805301    -0.12400
C497        C  0.17205706  0.60127377  0.04453936     0.25700
C498        C  0.17839725  0.62442055  0.99920280    -0.22500
C499        C  0.18476956  0.60707138  0.95376481     0.20600
C500        C  0.18786621  0.56949098  0.95421625     0.25600
C501        C  0.18424839  0.54793374  0.99994691    -0.22400
C502        C  0.17488181  0.56339443  0.04486373     0.20500
F503        F  0.17097896  0.54336834  0.08976760    -0.12400
F504        F  0.16562146  0.61649749  0.08922723    -0.14700
F505        F  0.19481838  0.55440878  0.90969658    -0.14700
F506        F  0.18902512  0.62697374  0.90868422    -0.12400
C507        C  0.02450933  0.74791080  0.00989832     0.25700
C508        C  0.04739475  0.72556438  0.00292284    -0.22500
C509        C  0.02396950  0.68057662  0.99345642     0.20600
C510        C  0.97877260  0.65811382  0.99144443     0.25600
C511        C  0.95534776  0.67989957  0.99920784    -0.22400
C512        C  0.97871502  0.72515121  0.00860200     0.20500
F513        F  0.95738788  0.74736368  0.01614367    -0.12400
F514        F  0.04633750  0.79133036  0.01958001    -0.14700
F515        F  0.95799007  0.61446680  0.98323390    -0.14700
F516        F  0.04501123  0.65808163  0.98555192    -0.12400
C517        C  0.19528045  0.82006578  0.78376744     0.25700
C518        C  0.20962656  0.79490616  0.80937996    -0.22500
C519        C  0.22499708  0.77204753  0.78025093     0.20600
C520        C  0.22653450  0.77456275  0.72752941     0.25600
C521        C  0.21276325  0.80006890  0.70164621    -0.22400
C522        C  0.19681560  0.82259541  0.73051037     0.20500
F523        F  0.18301816  0.84742948  0.70744178    -0.12400
F524        F  0.18011451  0.84264767  0.81008269    -0.14700
F525        F  0.24113704  0.75109042  0.70201157    -0.14700
F526        F  0.23835309  0.74648403  0.80247982    -0.12400
C527        C  0.17422561  0.77394986  0.22804222     0.25700
C528        C  0.21322999  0.78966408  0.20071994    -0.22500
C529        C  0.25266432  0.80613577  0.22743462     0.20600
C530        C  0.25317409  0.80688502  0.28039726     0.25600
C531        C  0.21426147  0.79114423  0.30779418    -0.22400
C532        C  0.17474359  0.77471223  0.28119617     0.20500
F533        F  0.13676775  0.76029858  0.30661526    -0.12400
F534        F  0.13572120  0.75864551  0.20331755    -0.14700
F535        F  0.29166200  0.82144275  0.30491628    -0.14700
F536        F  0.29065499  0.81985375  0.20228752    -0.12400
C537        C  0.57375909  0.39816310  0.44550450     0.25700
C538        C  0.55423173  0.37805503  0.49159382    -0.22500
C539        C  0.57344686  0.39984890  0.53755565     0.20600
C540        C  0.61244324  0.43967208  0.53753752     0.25600
C541        C  0.63348305  0.45820731  0.49161621    -0.22400
C542        C  0.61319858  0.43769252  0.44555932     0.20500
F543        F  0.63215941  0.45539448  0.40051798    -0.12400
F544        F  0.55626626  0.37830519  0.40037150    -0.14700
F545        F  0.63112782  0.45851327  0.58267926    -0.14700
F546        F  0.55514608  0.38199072  0.58278692    -0.12400
C547        C  0.63276723  0.21690610  0.53683395     0.25700
C548        C  0.64212406  0.19430153  0.49930520    -0.22500
C549        C  0.61004373  0.16991285  0.46242563     0.20600
C550        C  0.57029831  0.16931465  0.46228205     0.25600
C551        C  0.56173533  0.19316613  0.49894120    -0.22400
C552        C  0.59332871  0.21621841  0.53675823     0.20500
F553        F  0.58675010  0.23910200  0.57378756    -0.12400
F554        F  0.66213692  0.24085365  0.57355940    -0.14700
F555        F  0.54077914  0.14620179  0.42539733    -0.14700
F556        F  0.61727982  0.14728846  0.42570699    -0.12400
C557        C  0.29316096  0.03066186  0.53302910     0.25700
C558        C  0.31825270  0.05219420  0.49015950    -0.22500
C559        C  0.31753738  0.02722944  0.44805716     0.20600
C560        C  0.29469937  0.98192376  0.44989111     0.25600
C561        C  0.27210671  0.96022381  0.49401827    -0.22400
C562        C  0.27028830  0.98500621  0.53497977     0.20500
F563        F  0.24878643  0.96529318  0.57812657    -0.12400
F564        F  0.29311675  0.05372479  0.57435898    -0.14700
F565        F  0.29540628  0.95923383  0.40848384    -0.14700
F566        F  0.33970646  0.04673544  0.40511778    -0.12400
C567        C  0.30080095  0.32384779  0.45084095     0.25700
C568        C  0.27607583  0.32139061  0.49383370    -0.22500
C569        C  0.27290012  0.29400144  0.53380917     0.20600
C570        C  0.29554584  0.27111135  0.53170406     0.25600
C571        C  0.32172329  0.27511685  0.48950588    -0.22400
C572        C  0.32322042  0.30107131  0.44868810     0.20500
F573        F  0.34685941  0.30491499  0.40649800    -0.12400
F574        F  0.30372074  0.34877344  0.41064501    -0.14700
F575        F  0.29374202  0.24701369  0.57221308    -0.14700
F576        F  0.24995994  0.29128455  0.57619981    -0.12400
C577        C  0.44151330  0.19237436  0.71344159     0.25700
C578        C  0.41909502  0.20962737  0.68791606    -0.22500
C579        C  0.39717925  0.22630133  0.71612230     0.20600
C580        C  0.39892694  0.22710846  0.76928207     0.25600
C581        C  0.42173010  0.21016067  0.79507490    -0.22400
C582        C  0.44242893  0.19215201  0.76650229     0.20500
F583        F  0.46485856  0.17563135  0.78983535    -0.12400
F584        F  0.46241946  0.17551580  0.68683602    -0.14700
F585        F  0.37805815  0.24420719  0.79547005    -0.14700
F586        F  0.37550195  0.24333164  0.69213807    -0.12400
C587        C  0.38860763  0.21172239  0.21713956     0.25700
C588        C  0.41564800  0.20153018  0.18849217    -0.22500
C589        C  0.44476075  0.19221587  0.21376009     0.20600
C590        C  0.44735084  0.19380500  0.26676296     0.25600
C591        C  0.42167673  0.20586546  0.29541439    -0.22400
C592        C  0.39198877  0.21441965  0.27018714     0.20500
F593        F  0.36614597  0.22527520  0.29696350    -0.12400
F594        F  0.36046410  0.22113859  0.19368943    -0.14700
F595        F  0.47634674  0.18540859  0.28993331    -0.14700
F596        F  0.47095794  0.18180158  0.18697571    -0.12400
C597        C  0.60549119  0.43388157  0.04800332     0.25700
C598        C  0.62624978  0.45428286  0.00255956    -0.22500
C599        C  0.60544906  0.43564029  0.95604629     0.20600
C600        C  0.56611254  0.39597631  0.95492146     0.25600
C601        C  0.54685623  0.37415744  0.00027898    -0.22400
C602        C  0.56620159  0.39428168  0.04687910     0.20500
F603        F  0.54756915  0.37508305  0.09148041    -0.12400
F604        F  0.62377650  0.45179104  0.09363632    -0.14700
F605        F  0.54876670  0.37730643  0.90926287    -0.14700
F606        F  0.62486394  0.45394825  0.91142267    -0.12400
C607        C  0.60814277  0.17103287  0.95474825     0.25700
C608        C  0.63240876  0.18030029  0.00004437    -0.22500
C609        C  0.61589997  0.18893120  0.04460189     0.20600
C610        C  0.57781426  0.19104027  0.04319643     0.25600
C611        C  0.55493687  0.18426494  0.99733175    -0.22400
C612        C  0.56980973  0.17296706  0.95344173     0.20500
F613        F  0.54861038  0.16605543  0.90848600    -0.12400
F614        F  0.62252692  0.16229490  0.91092458    -0.14700
F615        F  0.56359798  0.20015890  0.08695509    -0.14700
F616        F  0.63698782  0.19622878  0.08972912    -0.12400
C617        C  0.32382105  0.97591733  0.99718276     0.25700
C618        C  0.27806058  0.95212035  0.99898846    -0.22500
C619        C  0.25525565  0.97489818  0.99578544     0.20600
C620        C  0.27791988  0.02059740  0.99277393     0.25600
C621        C  0.32368868  0.04414726  0.99157467    -0.22400
C622        C  0.34621914  0.02111195  0.99320562     0.20500
F623        F  0.39037329  0.04248467  0.99229739    -0.12400
F624        F  0.34723235  0.95536657  0.99831451    -0.14700
F625        F  0.25515649  0.04170518  0.98997406    -0.14700
F626        F  0.21114258  0.95309240  0.99658805    -0.12400
C627        C  0.31026991  0.28596016  0.95044636     0.25700
C628        C  0.30969054  0.26009263  0.99099620    -0.22500
C629        C  0.28320551  0.25486410  0.03333060     0.20600
C630        C  0.26056574  0.27770228  0.03652144     0.25600
C631        C  0.26322345  0.30510035  0.99698608    -0.22400
C632        C  0.28718531  0.30806228  0.95345676     0.20500
F633        F  0.29039878  0.33462584  0.91499272    -0.12400
F634        F  0.33433039  0.29103319  0.90827989    -0.14700
F635        F  0.23718164  0.27416250  0.07879595    -0.14700
F636        F  0.28132274  0.22989492  0.07294338    -0.12400
loop_ 
_geom_bond_atom_site_label_1 
_geom_bond_atom_site_label_2 
_geom_bond_distance 
_geom_bond_site_symmetry_2 
_ccdc_geom_bond_type 
Zn1           O5   1.955       .  S
Zn1           O6   2.003       .  S
Zn1          O10   2.024       .  S
Zn1          O17   2.019       .  S
Zn2           O5   1.984   1_554  S
Zn2           O7   2.050       .  S
Zn2           O9   2.066       .  S
Zn2          O13   2.056       .  S
Zn3           O5   1.947   1_554  S
Zn3           O8   1.998       .  S
Zn3          O11   1.986       .  S
Zn3          O14   2.009       .  S
Zn4           O5   1.953       .  S
Zn4          O12   2.040       .  S
Zn4          O15   2.002       .  S
Zn4          O16   2.023       .  S
O6           C18   1.274       .  A
O7           C19   1.277       .  A
O8           C20   1.271   1_554  A
O9           C18   1.280   1_554  A
O10          C20   1.273       .  A
O11          C19   1.270       .  A
O12          C21   1.276       .  A
O13          C22   1.279   1_554  A
O14          C21   1.272   1_554  A
O15          C22   1.274       .  A
O16          C23   1.274       .  A
O17          C23   1.274       .  A
C18         C621   1.487       .  S
C19         C588   1.476       .  S
C20         C611   1.483       .  S
C21         C601   1.484   1_556  S
C22         C628   1.488       .  S
C23         C581   1.483       .  S
Zn24         O28   1.948       .  S
Zn24         O29   2.005       .  S
Zn24         O33   2.018       .  S
Zn24         O40   2.035       .  S
Zn25         O28   1.975       .  S
Zn25         O30   2.050       .  S
Zn25         O32   2.051       .  S
Zn25         O36   2.036       .  S
Zn26         O28   1.961       .  S
Zn26         O31   2.021       .  S
Zn26         O34   2.006       .  S
Zn26         O37   2.041       .  S
Zn27         O28   1.938       .  S
Zn27         O35   1.987       .  S
Zn27         O38   2.000       .  S
Zn27         O39   2.007       .  S
O29          C41   1.274       .  A
O30          C42   1.279       .  A
O31          C43   1.274       .  A
O32          C41   1.278       .  A
O33          C43   1.274       .  A
O34          C42   1.275       .  A
O35          C44   1.270       .  A
O36          C45   1.274       .  A
O37          C44   1.275       .  A
O38          C45   1.271       .  A
O39          C46   1.273       .  A
O40          C46   1.275       .  A
C41         C571   1.489       .  S
C42         C558   1.484       .  S
C43         C591   1.478       .  S
C44         C551   1.490       .  S
C45         C578   1.473       .  S
C46         C538   1.484       .  S
Zn47         O51   1.980   1_556  S
Zn47         O52   2.060       .  S
Zn47         O56   2.060       .  S
Zn47         O63   2.043       .  S
Zn48         O51   1.943       .  S
Zn48         O53   2.013       .  S
Zn48         O55   2.010       .  S
Zn48         O59   2.026       .  S
Zn49         O51   1.943       .  S
Zn49         O54   1.995       .  S
Zn49         O57   2.012       .  S
Zn49         O60   2.040       .  S
Zn50         O51   1.935   1_556  S
Zn50         O58   1.999       .  S
Zn50         O61   2.003       .  S
Zn50         O62   1.991       .  S
O52          C64   1.279   1_556  A
O53          C65   1.274       .  A
O54          C66   1.274       .  A
O55          C64   1.275       .  A
O56          C66   1.279   1_556  A
O57          C65   1.273       .  A
O58          C67   1.271       .  A
O59          C68   1.273       .  A
O60          C67   1.275   1_554  A
O61          C68   1.271   1_556  A
O62          C69   1.273       .  A
O63          C69   1.276       .  A
C64         C618   1.490   1_554  S
C65         C528   1.476       .  S
C66         C508   1.480       .  S
C67         C498   1.489       .  S
C68         C488   1.474       .  S
C69         C518   1.491       .  S
Zn70         O74   1.950       .  S
Zn70         O75   1.974       .  S
Zn70         O79   2.029       .  S
Zn70         O86   2.015       .  S
Zn71         O74   1.990       .  S
Zn71         O76   2.061       .  S
Zn71         O78   2.068       .  S
Zn71         O82   2.061       .  S
Zn72         O74   1.932       .  S
Zn72         O77   1.989       .  S
Zn72         O80   1.978       .  S
Zn72         O83   2.001       .  S
Zn73         O74   1.943       .  S
Zn73         O81   2.033       .  S
Zn73         O84   2.000       .  S
Zn73         O85   2.003       .  S
O75          C87   1.271       .  A
O76          C88   1.278       .  A
O77          C89   1.270       .  A
O78          C87   1.279       .  A
O79          C89   1.273       .  A
O80          C88   1.270       .  A
O81          C90   1.274       .  A
O82          C91   1.280       .  A
O83          C90   1.271       .  A
O84          C91   1.275       .  A
O85          C92   1.271       .  A
O86          C92   1.272       .  A
C87         C478   1.480       .  S
C88         C521   1.492       .  S
C89         C471   1.489       .  S
C90         C458   1.481       .  S
C91         C561   1.486       .  S
C92         C531   1.475       .  S
Zn93         O97   1.982       .  S
Zn93         O98   2.043       .  S
Zn93        O102   2.053       .  S
Zn93        O109   2.033       .  S
Zn94         O97   1.950   1_556  S
Zn94         O99   2.010       .  S
Zn94        O101   1.997       .  S
Zn94        O105   2.031       .  S
Zn95         O97   1.948   1_556  S
Zn95        O100   1.991       .  S
Zn95        O103   2.012       .  S
Zn95        O106   2.025       .  S
Zn96         O97   1.944       .  S
Zn96        O104   2.010       .  S
Zn96        O107   2.011       .  S
Zn96        O108   1.999       .  S
O98         C110   1.277   1_554  A
O99         C111   1.272       .  A
O100        C112   1.272       .  A
O101        C110   1.274       .  A
O102        C112   1.277   1_554  A
O103        C111   1.273       .  A
O104        C113   1.273       .  A
O105        C114   1.274   1_556  A
O106        C113   1.273   1_556  A
O107        C114   1.272       .  A
O108        C115   1.273       .  A
O109        C115   1.275       .  A
C110        C431   1.480       .  S
C111        C438   1.488       .  S
C112        C511   1.488       .  S
C113        C418   1.492       .  S
C114        C598   1.483       .  S
C115        C448   1.479       .  S
Zn116       O120   1.951       .  S
Zn116       O121   1.989       .  S
Zn116       O125   2.008       .  S
Zn116       O132   2.027       .  S
Zn117       O120   1.988       .  S
Zn117       O122   2.064       .  S
Zn117       O124   2.043       .  S
Zn117       O128   2.056       .  S
Zn118       O120   1.947       .  S
Zn118       O123   2.026       .  S
Zn118       O126   1.999       .  S
Zn118       O129   2.012       .  S
Zn119       O120   1.945       .  S
Zn119       O127   2.008       .  S
Zn119       O130   1.989       .  S
Zn119       O131   2.020       .  S
O121        C133   1.272       .  A
O122        C134   1.279       .  A
O123        C135   1.274       .  A
O124        C133   1.277       .  A
O125        C135   1.272       .  A
O126        C134   1.274       .  A
O127        C136   1.272       .  A
O128        C137   1.278       .  A
O129        C136   1.273       .  A
O130        C137   1.273       .  A
O131        C138   1.273       .  A
O132        C138   1.274       .  A
C133        C451   1.477       .  S
C134        C408   1.492       .  S
C135        C541   1.480       .  S
C136        C441   1.487       .  S
C137        C481   1.483       .  S
C138        C401   1.487       .  S
Zn139       O143   1.980       .  S
Zn139       O144   2.042       .  S
Zn139       O148   2.034       .  S
Zn139       O155   2.055       .  S
Zn140       O143   1.942   1_556  S
Zn140       O145   2.036       .  S
Zn140       O147   1.999       .  S
Zn140       O151   1.997       .  S
Zn141       O143   1.946       .  S
Zn141       O146   2.006       .  S
Zn141       O149   2.025       .  S
Zn141       O152   2.012       .  S
Zn142       O143   1.955   1_556  S
Zn142       O150   2.021       .  S
Zn142       O153   2.024       .  S
Zn142       O154   1.999       .  S
O144        C156   1.277   1_554  A
O145        C157   1.274   1_556  A
O146        C158   1.275       .  A
O147        C156   1.274       .  A
O148        C158   1.275       .  A
O149        C157   1.274       .  A
O150        C159   1.274   1_556  A
O151        C160   1.271       .  A
O152        C159   1.273       .  A
O153        C160   1.273       .  A
O154        C161   1.273       .  A
O155        C161   1.278   1_554  A
C156        C428   1.481       .  S
C157        C361   1.487   1_554  S
C158        C391   1.483       .  S
C159        C491   1.474       .  S
C160        C378   1.487       .  S
C161        C368   1.489       .  S
Zn162       O166   1.941       .  S
Zn162       O167   2.003       .  S
Zn162       O171   2.016       .  S
Zn162       O178   2.006       .  S
Zn163       O166   1.988       .  S
Zn163       O168   2.053       .  S
Zn163       O170   2.066       .  S
Zn163       O174   2.058       .  S
Zn164       O166   1.951       .  S
Zn164       O169   2.010       .  S
Zn164       O172   1.985       .  S
Zn164       O175   2.025       .  S
Zn165       O166   1.945       .  S
Zn165       O173   2.011       .  S
Zn165       O176   1.987       .  S
Zn165       O177   2.010       .  S
O167        C179   1.275       .  A
O168        C180   1.278       .  A
O169        C181   1.273       .  A
O170        C179   1.279       .  A
O171        C181   1.273       .  A
O172        C180   1.272       .  A
O173        C182   1.272       .  A
O174        C183   1.279       .  A
O175        C182   1.272       .  A
O176        C183   1.273       .  A
O177        C184   1.271       .  A
O178        C184   1.272       .  A
C179        C411   1.493       .  S
C180        C388   1.485       .  S
C181        C338   1.478       .  S
C182        C461   1.483       .  S
C183        C351   1.483       .  S
C184        C381   1.485       .  S
Zn185       O189   1.959       .  S
Zn185       O190   2.022       .  S
Zn185       O194   2.044       .  S
Zn185       O201   2.031       .  S
Zn186       O189   1.973   1_554  S
Zn186       O191   2.036       .  S
Zn186       O193   2.043       .  S
Zn186       O197   2.043       .  S
Zn187       O189   1.939   1_554  S
Zn187       O192   1.992       .  S
Zn187       O195   1.994       .  S
Zn187       O198   1.997       .  S
Zn188       O189   1.949       .  S
Zn188       O196   2.035       .  S
Zn188       O199   2.008       .  S
Zn188       O200   2.021       .  S
O190        C202   1.276   1_556  A
O191        C203   1.274       .  A
O192        C204   1.270       .  A
O193        C202   1.277       .  A
O194        C204   1.275   1_556  A
O195        C203   1.270       .  A
O196        C205   1.275   1_556  A
O197        C206   1.277   1_554  A
O198        C205   1.272       .  A
O199        C206   1.274       .  A
O200        C207   1.274       .  A
O201        C207   1.276       .  A
C202        C308   1.474       .  S
C203        C328   1.468       .  S
C204        C421   1.493       .  S
C205        C608   1.487       .  S
C206        C371   1.490       .  S
C207        C318   1.477       .  S
Zn208       O212   1.952       .  S
Zn208       O213   2.033       .  S
Zn208       O217   1.991       .  S
Zn208       O224   2.024       .  S
Zn209       O212   1.935       .  S
Zn209       O214   1.992       .  S
Zn209       O216   1.989       .  S
Zn209       O220   1.997       .  S
Zn210       O212   1.978       .  S
Zn210       O215   2.058       .  S
Zn210       O218   2.053       .  S
Zn210       O221   2.053       .  S
Zn211       O212   1.946       .  S
Zn211       O219   2.000       .  S
Zn211       O222   2.042       .  S
Zn211       O223   2.012       .  S
O213        C225   1.274       .  A
O214        C226   1.271       .  A
O215        C227   1.279       .  A
O216        C225   1.271       .  A
O217        C227   1.273       .  A
O218        C226   1.277       .  A
O219        C228   1.275       .  A
O220        C229   1.270       .  A
O221        C228   1.280       .  A
O222        C229   1.275       .  A
O223        C230   1.273       .  A
O224        C230   1.274       .  A
C225        C548   1.490       .  S
C226        C321   1.483       .  S
C227        C348   1.482       .  S
C228        C298   1.482       .  S
C229        C398   1.481       .  S
C230        C331   1.488       .  S
Zn231       O235   1.965       .  S
Zn231       O236   2.043       .  S
Zn231       O240   2.023       .  S
Zn231       O247   2.029       .  S
Zn232       O235   1.952   1_556  S
Zn232       O237   1.997       .  S
Zn232       O239   2.025       .  S
Zn232       O243   2.017       .  S
Zn233       O235   1.981   1_556  S
Zn233       O238   2.039       .  S
Zn233       O241   2.039       .  S
Zn233       O244   2.058       .  S
Zn234       O235   1.951       .  S
Zn234       O242   1.998       .  S
Zn234       O245   2.015       .  S
Zn234       O246   1.992       .  S
O236        C248   1.276   1_554  A
O237        C249   1.272       .  A
O238        C250   1.277   1_556  A
O239        C248   1.274       .  A
O240        C250   1.275       .  A
O241        C249   1.275       .  A
O242        C251   1.272       .  A
O243        C252   1.273   1_556  A
O244        C251   1.278   1_556  A
O245        C252   1.271       .  A
O246        C253   1.272       .  A
O247        C253   1.274       .  A
C248        C358   1.491       .  S
C249        C281   1.480       .  S
C250        C631   1.473   1_554  S
C251        C311   1.496       .  S
C252        C501   1.483   1_554  S
C253        C291   1.488       .  S
Zn254       O258   1.938       .  S
Zn254       O259   1.993       .  S
Zn254       O263   1.990       .  S
Zn254       O270   1.998       .  S
Zn255       O258   1.959       .  S
Zn255       O260   2.003       .  S
Zn255       O262   2.021       .  S
Zn255       O266   2.032       .  S
Zn256       O258   1.975       .  S
Zn256       O261   2.064       .  S
Zn256       O264   2.046       .  S
Zn256       O267   2.030       .  S
Zn257       O258   1.948       .  S
Zn257       O265   2.010       .  S
Zn257       O268   2.002       .  S
Zn257       O269   2.029       .  S
O259        C271   1.270       .  A
O260        C272   1.274       .  A
O261        C273   1.279       .  A
O262        C271   1.273       .  A
O263        C273   1.272       .  A
O264        C272   1.278       .  A
O265        C274   1.274       .  A
O266        C275   1.274       .  A
O267        C274   1.275       .  A
O268        C275   1.272       .  A
O269        C276   1.275       .  A
O270        C276   1.271       .  A
C271        C288   1.487       .  S
C272        C301   1.480       .  S
C273        C568   1.488       .  S
C274        C278   1.483       .  S
C275        C468   1.490       .  S
C276        C341   1.481       .  S
C277        C278   1.409       .  A
C277        C282   1.403       .  A
C277        F284   1.358       .  S
C278        C279   1.407       .  A
C279        C280   1.395       .  A
C279        F286   1.358       .  S
C280        C281   1.407       .  A
C280        F285   1.358       .  S
C281        C282   1.407       .  A
C282        F283   1.358       .  S
C287        C288   1.411       .  A
C287        C292   1.398       .  A
C287        F294   1.358       .  S
C288        C289   1.409       .  A
C289        C290   1.396       .  A
C289        F296   1.358       .  S
C290        C291   1.411       .  A
C290        F295   1.358       .  S
C291        C292   1.409       .  A
C292        F293   1.358       .  S
C297        C298   1.408       .  A
C297        C302   1.404   1_655  A
C297        F304   1.358       .  S
C298        C299   1.408       .  A
C299        C300   1.396   1_655  A
C299        F306   1.358       .  S
C300        C301   1.406       .  A
C300        F305   1.358       .  S
C301        C302   1.408       .  A
C302        F303   1.358       .  S
C307        C308   1.400       .  A
C307        C312   1.397   1_655  A
C307        F314   1.359       .  S
C308        C309   1.403   1_554  A
C309        C310   1.406   1_655  A
C309        F316   1.357       .  S
C310        C311   1.414   1_556  A
C310        F315   1.357       .  S
C311        C312   1.415       .  A
C312        F313   1.358       .  S
C317        C318   1.403       .  A
C317        C322   1.398       .  A
C317        F324   1.358       .  S
C318        C319   1.407       .  A
C319        C320   1.403       .  A
C319        F326   1.358       .  S
C320        C321   1.408       .  A
C320        F325   1.358       .  S
C321        C322   1.410       .  A
C322        F323   1.358       .  S
C327        C328   1.400       .  A
C327        C332   1.396       .  A
C327        F334   1.358       .  S
C328        C329   1.402       .  A
C329        C330   1.402       .  A
C329        F336   1.358       .  S
C330        C331   1.413       .  A
C330        F335   1.358       .  S
C331        C332   1.411       .  A
C332        F333   1.358       .  S
C337        C338   1.408       .  A
C337        C342   1.399       .  A
C337        F344   1.358       .  S
C338        C339   1.405       .  A
C339        C340   1.398       .  A
C339        F346   1.358       .  S
C340        C341   1.410       .  A
C340        F345   1.358       .  S
C341        C342   1.406       .  A
C342        F343   1.358       .  S
C347        C348   1.408       .  A
C347        C352   1.408   1_545  A
C347        F354   1.357       .  S
C348        C349   1.407       .  A
C349        C350   1.392   1_545  A
C349        F356   1.359       .  S
C350        C351   1.408       .  A
C350        F355   1.359       .  S
C351        C352   1.409       .  A
C352        F353   1.357       .  S
C357        C358   1.409   1_554  A
C357        C362   1.402       .  A
C357        F364   1.357       .  S
C358        C359   1.410       .  A
C359        C360   1.403       .  A
C359        F366   1.358       .  S
C360        C361   1.409       .  A
C360        F365   1.358       .  S
C361        C362   1.407   1_556  A
C362        F363   1.358       .  S
C367        C368   1.409       .  A
C367        C372   1.396   1_565  A
C367        F374   1.358       .  S
C368        C369   1.409   1_556  A
C369        C370   1.406   1_565  A
C369        F376   1.357       .  S
C370        C371   1.411   1_554  A
C370        F375   1.358       .  S
C371        C372   1.409       .  A
C372        F373   1.358       .  S
C377        C378   1.410       .  A
C377        C382   1.395       .  A
C377        F384   1.358       .  S
C378        C379   1.410       .  A
C379        C380   1.400       .  A
C379        F386   1.358       .  S
C380        C381   1.410       .  A
C380        F385   1.358       .  S
C381        C382   1.408       .  A
C382        F383   1.358       .  S
C387        C388   1.409       .  A
C387        C392   1.406       .  A
C387        F394   1.358       .  S
C388        C389   1.409       .  A
C389        C390   1.392       .  A
C389        F396   1.358       .  S
C390        C391   1.405       .  A
C390        F395   1.358       .  S
C391        C392   1.410       .  A
C392        F393   1.358       .  S
C397        C398   1.407       .  A
C397        C402   1.399       .  A
C397        F404   1.358       .  S
C398        C399   1.406       .  A
C399        C400   1.402       .  A
C399        F406   1.358       .  S
C400        C401   1.410       .  A
C400        F405   1.358       .  S
C401        C402   1.409       .  A
C402        F403   1.358       .  S
C407        C408   1.411       .  A
C407        C412   1.409       .  A
C407        F414   1.357       .  S
C408        C409   1.409       .  A
C409        C410   1.394       .  A
C409        F416   1.359       .  S
C410        C411   1.409       .  A
C410        F415   1.358       .  S
C411        C412   1.411       .  A
C412        F413   1.357       .  S
C417        C418   1.412   1_556  A
C417        C422   1.404       .  A
C417        F424   1.358       .  S
C418        C419   1.409       .  A
C419        C420   1.395       .  A
C419        F426   1.358       .  S
C420        C421   1.412       .  A
C420        F425   1.358       .  S
C421        C422   1.410   1_554  A
C422        F423   1.358       .  S
C427        C428   1.407       .  A
C427        C432   1.394       .  A
C427        F434   1.358       .  S
C428        C429   1.409   1_556  A
C429        C430   1.404       .  A
C429        F436   1.358       .  S
C430        C431   1.408   1_554  A
C430        F435   1.358       .  S
C431        C432   1.406       .  A
C432        F433   1.358       .  S
C437        C438   1.411       .  A
C437        C442   1.398       .  A
C437        F444   1.358       .  S
C438        C439   1.409       .  A
C439        C440   1.398       .  A
C439        F446   1.358       .  S
C440        C441   1.410       .  A
C440        F445   1.358       .  S
C441        C442   1.409       .  A
C442        F443   1.358       .  S
C447        C448   1.408       .  A
C447        C452   1.403       .  A
C447        F454   1.358       .  S
C448        C449   1.406       .  A
C449        C450   1.394       .  A
C449        F456   1.358       .  S
C450        C451   1.407       .  A
C450        F455   1.359       .  S
C451        C452   1.406       .  A
C452        F453   1.358       .  S
C457        C458   1.406       .  A
C457        C462   1.397       .  A
C457        F464   1.358       .  S
C458        C459   1.409       .  A
C459        C460   1.403       .  A
C459        F466   1.358       .  S
C460        C461   1.409       .  A
C460        F465   1.358       .  S
C461        C462   1.408       .  A
C462        F463   1.358       .  S
C467        C468   1.410       .  A
C467        C472   1.394       .  A
C467        F474   1.358       .  S
C468        C469   1.411       .  A
C469        C470   1.403       .  A
C469        F476   1.357       .  S
C470        C471   1.410       .  A
C470        F475   1.358       .  S
C471        C472   1.410       .  A
C472        F473   1.359       .  S
C477        C478   1.408       .  A
C477        C482   1.409   1_455  A
C477        F484   1.357       .  S
C478        C479   1.407       .  A
C479        C480   1.390   1_455  A
C479        F486   1.359       .  S
C480        C481   1.407       .  A
C480        F485   1.359       .  S
C481        C482   1.410       .  A
C482        F483   1.357       .  S
C487        C488   1.405       .  A
C487        C492   1.402       .  A
C487        F494   1.357       .  S
C488        C489   1.406       .  A
C489        C490   1.396       .  A
C489        F496   1.359       .  S
C490        C491   1.405       .  A
C490        F495   1.359       .  S
C491        C492   1.406       .  A
C492        F493   1.357       .  S
C497        C498   1.410   1_554  A
C497        C502   1.402       .  A
C497        F504   1.358       .  S
C498        C499   1.411       .  A
C499        C500   1.397       .  A
C499        F506   1.358       .  S
C500        C501   1.406       .  A
C500        F505   1.358       .  S
C501        C502   1.409   1_556  A
C502        F503   1.358       .  S
C507        C508   1.407       .  A
C507        C512   1.409   1_455  A
C507        F514   1.357       .  S
C508        C509   1.404   1_554  A
C509        C510   1.391   1_455  A
C509        F516   1.359       .  S
C510        C511   1.410       .  A
C510        F515   1.359       .  S
C511        C512   1.412   1_556  A
C512        F513   1.357       .  S
C517        C518   1.412       .  A
C517        C522   1.406       .  A
C517        F524   1.358       .  S
C518        C519   1.409       .  A
C519        C520   1.392       .  A
C519        F526   1.359       .  S
C520        C521   1.412       .  A
C520        F525   1.358       .  S
C521        C522   1.410       .  A
C522        F523   1.357       .  S
C527        C528   1.408       .  A
C527        C532   1.400       .  A
C527        F534   1.358       .  S
C528        C529   1.406       .  A
C529        C530   1.395       .  A
C529        F536   1.358       .  S
C530        C531   1.406       .  A
C530        F535   1.358       .  S
C531        C532   1.407       .  A
C532        F533   1.358       .  S
C537        C538   1.408       .  A
C537        C542   1.401       .  A
C537        F544   1.358       .  S
C538        C539   1.409       .  A
C539        C540   1.398       .  A
C539        F546   1.358       .  S
C540        C541   1.405       .  A
C540        F545   1.358       .  S
C541        C542   1.408       .  A
C542        F543   1.358       .  S
C547        C548   1.410       .  A
C547        C552   1.392       .  A
C547        F554   1.359       .  S
C548        C549   1.411       .  A
C549        C550   1.404       .  A
C549        F556   1.358       .  S
C550        C551   1.411       .  A
C550        F555   1.357       .  S
C551        C552   1.410       .  A
C552        F553   1.358       .  S
C557        C558   1.409       .  A
C557        C562   1.406   1_545  A
C557        F564   1.358       .  S
C558        C559   1.406       .  A
C559        C560   1.395   1_545  A
C559        F566   1.358       .  S
C560        C561   1.409       .  A
C560        F565   1.359       .  S
C561        C562   1.409       .  A
C562        F563   1.357       .  S
C567        C568   1.409       .  A
C567        C572   1.396       .  A
C567        F574   1.359       .  S
C568        C569   1.408       .  A
C569        C570   1.406       .  A
C569        F576   1.357       .  S
C570        C571   1.411       .  A
C570        F575   1.357       .  S
C571        C572   1.409       .  A
C572        F573   1.359       .  S
C577        C578   1.404       .  A
C577        C582   1.398       .  A
C577        F584   1.358       .  S
C578        C579   1.403       .  A
C579        C580   1.401       .  A
C579        F586   1.358       .  S
C580        C581   1.410       .  A
C580        F585   1.358       .  S
C581        C582   1.409       .  A
C582        F583   1.358       .  S
C587        C588   1.404       .  A
C587        C592   1.401       .  A
C587        F594   1.358       .  S
C588        C589   1.407       .  A
C589        C590   1.398       .  A
C589        F596   1.358       .  S
C590        C591   1.405       .  A
C590        F595   1.358       .  S
C591        C592   1.408       .  A
C592        F593   1.358       .  S
C597        C598   1.407       .  A
C597        C602   1.400       .  A
C597        F604   1.358       .  S
C598        C599   1.408   1_554  A
C599        C600   1.402       .  A
C599        F606   1.358       .  S
C600        C601   1.407   1_556  A
C600        F605   1.358       .  S
C601        C602   1.408       .  A
C602        F603   1.358       .  S
C607        C608   1.410   1_556  A
C607        C612   1.401       .  A
C607        F614   1.357       .  S
C608        C609   1.410       .  A
C609        C610   1.396       .  A
C609        F616   1.358       .  S
C610        C611   1.408   1_554  A
C610        F615   1.359       .  S
C611        C612   1.408       .  A
C612        F613   1.358       .  S
C617        C618   1.409       .  A
C617        C622   1.396   1_565  A
C617        F624   1.359       .  S
C618        C619   1.410       .  A
C619        C620   1.409   1_565  A
C619        F626   1.357       .  S
C620        C621   1.408       .  A
C620        F625   1.357       .  S
C621        C622   1.408       .  A
C622        F623   1.359       .  S
C627        C628   1.411       .  A
C627        C632   1.397       .  A
C627        F634   1.358       .  S
C628        C629   1.411   1_556  A
C629        C630   1.406       .  A
C629        F636   1.358       .  S
C630        C631   1.405   1_554  A
C630        F635   1.357       .  S
C631        C632   1.401       .  A
C632        F633   1.358       .  S
