geometry optimzed in LAMMPS
_audit_creation_date              2020-12-01 
_audit_creation_method            'lammps2cif' 
_symmetry_space_group_name_H-M    'P1' 
_symmetry_Int_Tables_number       1 
_symmetry_cell_setting            triclinic 
loop_ 
_symmetry_equiv_pos_as_xyz 
  x,y,z 
_cell_length_a                    48.0726555 
_cell_length_b                    47.76798337021245 
_cell_length_c                    35.44873690828879 
_cell_angle_alpha                 90.4596016156893 
_cell_angle_beta                  89.08543641198379 
_cell_angle_gamma                 120.1486218872644 
loop_ 
_atom_site_label 
_atom_site_type_symbol 
_atom_site_fract_x 
_atom_site_fract_y 
_atom_site_fract_z 
_atom_site_charge 
Zn1        Zn  0.43133530  0.27115682  0.02134273     1.49700
Zn2        Zn  0.39134006  0.20987046  0.96772030     1.49400
Zn3        Zn  0.46752234  0.25615273  0.95480686     1.49100
Zn4        Zn  0.44079493  0.20965869  0.02650824     1.49500
O5          O  0.43274435  0.23675905  0.99249353    -1.83100
O6          O  0.39105846  0.27235857  0.00925101    -0.73700
O7          O  0.39810655  0.21174873  0.91152901    -0.73600
O8          O  0.49434840  0.30451426  0.96234656    -0.73100
O9          O  0.36045529  0.22621413  0.97865382    -0.73800
O10         O  0.47103863  0.31515282  0.01070248    -0.73400
O11         O  0.45046488  0.24496053  0.90131070    -0.73900
O12         O  0.48416502  0.21351590  0.01636702    -0.73300
O13         O  0.37119660  0.16236198  0.98149359    -0.74100
O14         O  0.49905006  0.24068478  0.96220555    -0.73500
O15         O  0.40836262  0.16294433  0.01850484    -0.73900
O16         O  0.43631400  0.21972434  0.08092784    -0.73900
O17         O  0.42869393  0.26185621  0.07736405    -0.73600
C18         C  0.36454579  0.25224763  0.99387766     0.78100
C19         C  0.42212682  0.22624290  0.88916193     0.78600
C20         C  0.49380843  0.32422394  0.98640684     0.77600
C21         C  0.50361251  0.22544802  0.98841471     0.78000
C22         C  0.38212460  0.14765203  0.00072168     0.79100
C23         C  0.43084463  0.24062667  0.09660506     0.78200
Zn24       Zn  0.41435804  0.18298685  0.52796920     1.49700
Zn25       Zn  0.42239411  0.25321444  0.51823532     1.49400
Zn26       Zn  0.45799240  0.23028295  0.46115848     1.49100
Zn27       Zn  0.38073518  0.19811196  0.45801246     1.49500
O28         O  0.41858452  0.21580684  0.49123948    -1.83100
O29         O  0.41272406  0.19712995  0.58191262    -0.73700
O30         O  0.46337423  0.29439864  0.50574318    -0.73600
O31         O  0.48245329  0.20884221  0.47797632    -0.73100
O32         O  0.42154736  0.24711524  0.57416880    -0.73800
O33         O  0.45326368  0.17668407  0.52517724    -0.73400
O34         O  0.48860621  0.27848579  0.46573749    -0.73900
O35         O  0.39524413  0.20281435  0.40276794    -0.73300
O36         O  0.38656758  0.26075172  0.50511330    -0.74100
O37         O  0.44772155  0.22059475  0.40635936    -0.73500
O38         O  0.35502426  0.22182658  0.46525207    -0.73900
O39         O  0.35228559  0.14971450  0.46796066    -0.73900
O40         O  0.37470140  0.13961084  0.51668800    -0.73600
C41         C  0.41737209  0.22396872  0.59541856     0.78100
C42         C  0.48741642  0.30063361  0.48467384     0.78600
C43         C  0.47821941  0.18873341  0.50390421     0.77600
C44         C  0.42240104  0.21104828  0.38713341     0.78000
C45         C  0.36183298  0.24716457  0.48450931     0.79100
C46         C  0.35302266  0.13007101  0.49159498     0.78200
Zn47       Zn  0.25699725  0.79828555  0.04293738     1.49700
Zn48       Zn  0.26786923  0.84466691  0.97349118     1.49400
Zn49       Zn  0.20272671  0.77555480  0.97934176     1.49100
Zn50       Zn  0.21582787  0.83340351  0.03775483     1.49500
O51         O  0.23562549  0.81283690  0.00823811    -1.83100
O52         O  0.30380233  0.81681239  0.02887311    -0.73700
O53         O  0.25570618  0.83082907  0.91984668    -0.73600
O54         O  0.20252449  0.73387901  0.99303513    -0.73100
O55         O  0.31153321  0.84906635  0.98024153    -0.73800
O56         O  0.23708900  0.75013720  0.04036879    -0.73400
O57         O  0.21062514  0.78301263  0.92251065    -0.73900
O58         O  0.16754378  0.80854628  0.03210429    -0.73300
O59         O  0.27174069  0.88852768  0.97988168    -0.74100
O60         O  0.15845356  0.76900180  0.99168221    -0.73500
O61         O  0.23289957  0.87975608  0.02119653    -0.73900
O62         O  0.22534095  0.83469552  0.09348909    -0.73900
O63         O  0.25412005  0.81021174  0.09698016    -0.73600
C64         C  0.32192542  0.83623038  0.00322595     0.78100
C65         C  0.23299747  0.80632256  0.90365501     0.78600
C66         C  0.21709596  0.72796231  0.01883490     0.77600
C67         C  0.14832087  0.78375776  0.01300838     0.78000
C68         C  0.25574121  0.89850121  0.99902026     0.79100
C69         C  0.24064943  0.82450760  0.11266495     0.78200
Zn70       Zn  0.19591626  0.75744856  0.47210131     1.49700
Zn71       Zn  0.23958368  0.77689077  0.54458219     1.49400
Zn72       Zn  0.25513669  0.82889328  0.47863104     1.49100
Zn73       Zn  0.19309832  0.80576485  0.53405311     1.49500
O74         O  0.22089947  0.79248756  0.50742876    -1.83100
O75         O  0.19412364  0.71585519  0.48632257    -0.73700
O76         O  0.28747686  0.79885988  0.53725246    -0.73600
O77         O  0.25007946  0.82109119  0.42182258    -0.73100
O78         O  0.22293947  0.72917576  0.53851520    -0.73800
O79         O  0.21288065  0.76896830  0.41891416    -0.73400
O80         O  0.29880891  0.83472086  0.49142910    -0.73900
O81         O  0.21190025  0.85451622  0.52834869    -0.73300
O82         O  0.22846627  0.78298496  0.59803436    -0.74100
O83         O  0.25500391  0.87023169  0.49110288    -0.73500
O84         O  0.19132625  0.79707000  0.59042200    -0.73900
O85         O  0.14705769  0.78069243  0.51438936    -0.73900
O86         O  0.15049883  0.74788621  0.47200057    -0.73600
C87         C  0.20559341  0.70834076  0.51401669     0.78100
C88         C  0.30755366  0.82061940  0.51484868     0.78600
C89         C  0.23319611  0.79528585  0.40289914     0.77600
C90         C  0.23658726  0.87667581  0.51104981     0.78000
C91         C  0.20766739  0.78949068  0.61166584     0.79100
C92         C  0.13424078  0.75813226  0.48985881     0.78200
Zn93       Zn  0.83633280  0.62966205  0.02906703     1.49700
Zn94       Zn  0.79540544  0.55176974  0.03722516     1.49400
Zn95       Zn  0.77378604  0.58683305  0.97852611     1.49100
Zn96       Zn  0.83769573  0.58390256  0.96331824     1.49500
O97         O  0.81092893  0.58819942  0.00224146    -1.83100
O98         O  0.83606863  0.62128604  0.08507483    -0.73700
O99         O  0.74742692  0.52150079  0.03205642    -0.73600
O100        O  0.76949155  0.62453605  0.99618744    -0.73100
O101        O  0.80594350  0.56776366  0.09101770    -0.73800
O102        O  0.81616035  0.65819012  0.02325999    -0.73400
O103        O  0.73220899  0.54462371  0.98920442    -0.73900
O104        O  0.82280619  0.58621100  0.91123296    -0.73300
O105        O  0.81515105  0.52397439  0.02491464    -0.74100
O106        O  0.77977237  0.59109533  0.92198876    -0.73500
O107        O  0.83849231  0.54232597  0.96889638    -0.73900
O108        O  0.88341041  0.61995845  0.96739400    -0.73900
O109        O  0.88343382  0.65333527  0.01150802    -0.73600
C110        C  0.82273336  0.59586846  0.10543871     0.78100
C111        C  0.72589027  0.52114370  0.01125349     0.78600
C112        C  0.78853606  0.65162757  0.01161547     0.77600
C113        C  0.79992949  0.58983498  0.89937515     0.78000
C114        C  0.82993589  0.52199421  0.99574760     0.79100
C115        C  0.89819504  0.64552631  0.98714235     0.78200
Zn116      Zn  0.78027367  0.53281688  0.53578998     1.49700
Zn117      Zn  0.83134788  0.56943910  0.47011618     1.49400
Zn118      Zn  0.76265835  0.56742439  0.47181214     1.49100
Zn119      Zn  0.81515485  0.60965488  0.53344855     1.49500
O120        O  0.79763648  0.57013868  0.50244956    -1.83100
O121        O  0.80219082  0.50697763  0.52859295    -0.73700
O122        O  0.82213421  0.57171091  0.41453103    -0.73600
O123        O  0.72063363  0.52519609  0.48048669    -0.73100
O124        O  0.83392999  0.52799426  0.47821015    -0.73800
O125        O  0.73400077  0.50202232  0.52527723    -0.73400
O126        O  0.77436970  0.56873639  0.41685115    -0.73900
O127        O  0.79442301  0.63668577  0.52126390    -0.73300
O128        O  0.87483731  0.60862810  0.48263482    -0.74100
O129        O  0.75531388  0.60523589  0.48200149    -0.73500
O130        O  0.86308582  0.63633185  0.52459262    -0.73900
O131        O  0.80819783  0.59909960  0.58966455    -0.73900
O132        O  0.78423790  0.54542363  0.58997283    -0.73600
C133        C  0.82133134  0.50639177  0.50392832     0.78100
C134        C  0.79812704  0.57064936  0.39821127     0.78600
C135        C  0.71357561  0.50159710  0.50265419     0.77600
C136        C  0.77028214  0.63112718  0.50140587     0.78000
C137        C  0.88341114  0.63292020  0.50452183     0.79100
C138        C  0.79580668  0.57223944  0.60732659     0.78200
Zn139      Zn  0.57444472  0.80839915  0.97085718     1.49700
Zn140      Zn  0.62865906  0.80718531  0.02395968     1.49400
Zn141      Zn  0.55419511  0.77075232  0.04904298     1.49100
Zn142      Zn  0.57503545  0.74314355  0.98053793     1.49500
O143        O  0.58362292  0.78279570  0.00606647    -1.83100
O144        O  0.61196464  0.85359934  0.96987425    -0.73700
O145        O  0.62956135  0.80884893  0.08158304    -0.73600
O146        O  0.52780766  0.79226835  0.04666194    -0.73100
O147        O  0.65064322  0.85444813  0.00465445    -0.73800
O148        O  0.53568123  0.81183542  0.98831348    -0.73400
O149        O  0.57773919  0.78230320  0.09765388    -0.73900
O150        O  0.53391106  0.70400746  0.99923412    -0.73300
O151        O  0.65256735  0.78277412  0.00955051    -0.74100
O152        O  0.52156929  0.72328013  0.04993718    -0.73500
O153        O  0.61222933  0.73632832  0.98770808    -0.73900
O154        O  0.57067510  0.74597553  0.92473505    -0.73900
O155        O  0.56826374  0.79080844  0.91719194    -0.73600
C156        C  0.63989748  0.86875634  0.98406596     0.78100
C157        C  0.60727014  0.79735030  0.10663388     0.78600
C158        C  0.52119889  0.80573463  0.02026372     0.77600
C159        C  0.51559906  0.70013817  0.02747657     0.78000
C160        C  0.64134708  0.75370973  0.99775672     0.79100
C161        C  0.56801528  0.76586337  0.90363901     0.78200
Zn162      Zn  0.56719486  0.73774547  0.54053056     1.49700
Zn163      Zn  0.53554386  0.75028256  0.46987936     1.49400
Zn164      Zn  0.56885626  0.80524849  0.53065642     1.49100
Zn165      Zn  0.61245591  0.78816799  0.47501284     1.49500
O166        O  0.57150583  0.77053303  0.50410877    -1.83100
O167        O  0.52658426  0.69423152  0.53203739    -0.73700
O168        O  0.50440056  0.76610702  0.47807474    -0.73600
O169        O  0.56871659  0.79930186  0.58665168    -0.73100
O170        O  0.50958835  0.70270947  0.47781558    -0.73800
O171        O  0.56712846  0.75238455  0.59472320    -0.73400
O172        O  0.52800841  0.80620693  0.51933405    -0.73900
O173        O  0.64031569  0.83684732  0.48511382    -0.73300
O174        O  0.55044967  0.75809056  0.41629620    -0.74100
O175        O  0.60752989  0.84833900  0.51825113    -0.73500
O176        O  0.60387534  0.78354212  0.41817120    -0.73900
O177        O  0.63603427  0.76340916  0.48800313    -0.73900
O178        O  0.60395028  0.72940682  0.53265139    -0.73600
C179        C  0.50720147  0.68399972  0.50451694     0.78100
C180        C  0.50435631  0.78812436  0.49834889     0.78600
C181        C  0.56780185  0.77761491  0.60807202     0.77600
C182        C  0.63429355  0.85724893  0.50133798     0.78000
C183        C  0.57773575  0.77119995  0.39973200     0.79100
C184        C  0.62874916  0.74028471  0.51123525     0.78200
Zn185      Zn  0.76156036  0.22344485  0.04613529     1.49700
Zn186      Zn  0.75102134  0.17412692  0.97906049     1.49400
Zn187      Zn  0.81522864  0.24423907  0.98399770     1.49100
Zn188      Zn  0.80371676  0.18893763  0.04393700     1.49500
O189        O  0.78290676  0.20729059  0.01310375    -1.83100
O190        O  0.71610870  0.20642232  0.03099044    -0.73700
O191        O  0.76454664  0.18690689  0.92423049    -0.73600
O192        O  0.81766105  0.28685008  0.99737320    -0.73100
O193        O  0.70691756  0.17037310  0.98583455    -0.73800
O194        O  0.78222090  0.27167419  0.04451270    -0.73400
O195        O  0.80731163  0.23633756  0.92872483    -0.73900
O196        O  0.85231594  0.21251506  0.03433642    -0.73300
O197        O  0.74717969  0.13022877  0.98881328    -0.74100
O198        O  0.85859149  0.25018719  0.99321572    -0.73500
O199        O  0.78459413  0.14120558  0.03187106    -0.73900
O200        O  0.79575057  0.19224088  0.10004070    -0.73900
O201        O  0.76263079  0.21205711  0.09974200    -0.73600
C202        C  0.69754511  0.18586734  0.00695086     0.78100
C203        C  0.78701184  0.21270344  0.90904840     0.78600
C204        C  0.80326016  0.29355533  0.02324324     0.77600
C205        C  0.87024008  0.23666092  0.01324567     0.78000
C206        C  0.76234523  0.12124906  0.01031059     0.79100
C207        C  0.77808100  0.20123974  0.11732396     0.78200
Zn208      Zn  0.79484053  0.17197020  0.49069504     1.49700
Zn209      Zn  0.73724610  0.17066693  0.53851520     1.49400
Zn210      Zn  0.80948266  0.23039739  0.54745925     1.49100
Zn211      Zn  0.77035486  0.22241092  0.47294172     1.49500
O212        O  0.77808097  0.19883506  0.51238444    -1.83100
O213        O  0.76703013  0.12436623  0.50575641    -0.73700
O214        O  0.74219552  0.17917632  0.59404289    -0.73600
O215        O  0.85218829  0.23170847  0.54166282    -0.73100
O216        O  0.72450462  0.12378510  0.53235863    -0.73800
O217        O  0.84181011  0.18976984  0.50474681    -0.73400
O218        O  0.79283926  0.21872750  0.60146040    -0.73900
O219        O  0.79720274  0.27099313  0.47964160    -0.73300
O220        O  0.70084365  0.17716101  0.52106022    -0.74100
O221        O  0.81862720  0.27595140  0.53610505    -0.73500
O222        O  0.72440965  0.21265488  0.47458306    -0.73900
O223        O  0.77873802  0.20950763  0.42175169    -0.73900
O224        O  0.79399895  0.17355876  0.43378464    -0.73600
C225        C  0.73891034  0.10907367  0.52063945     0.78100
C226        C  0.76535622  0.19804580  0.61508547     0.78600
C227        C  0.86142348  0.21439003  0.52392426     0.77600
C228        C  0.81339757  0.28842173  0.50735357     0.78000
C229        C  0.69985664  0.19492710  0.49510689     0.79100
C230        C  0.78748625  0.18962172  0.41059949     0.78200
Zn231      Zn  0.23881133  0.43354447  0.94779812     1.49700
Zn232      Zn  0.18796294  0.38771851  0.01058043     1.49400
Zn233      Zn  0.22577053  0.46546093  0.01992299     1.49100
Zn234      Zn  0.17242378  0.43083903  0.95663841     1.49500
O235        O  0.20627341  0.42935802  0.98411497    -1.83100
O236        O  0.24905930  0.39863206  0.95670468    -0.73700
O237        O  0.18957442  0.39555240  0.06667380    -0.73600
O238        O  0.27418647  0.49190310  0.01167490    -0.73100
O239        O  0.21339164  0.36484547  0.99883092    -0.73800
O240        O  0.28050815  0.47522704  0.95504562    -0.73400
O241        O  0.21537210  0.44907207  0.07409506    -0.73900
O242        O  0.17368393  0.47325782  0.96495825    -0.73300
O243        O  0.14038615  0.35910350  0.99962633    -0.74100
O244        O  0.20915749  0.49637174  0.01090149    -0.73500
O245        O  0.12939136  0.39431708  0.97277951    -0.73900
O246        O  0.17606869  0.42479222  0.90084638    -0.73900
O247        O  0.22394217  0.42884963  0.89394224    -0.73600
C248        C  0.23776276  0.37339264  0.97707518     0.78100
C249        C  0.20060298  0.42047148  0.08775644     0.78600
C250        C  0.29176357  0.49430587  0.98312123     0.77600
C251        C  0.18925896  0.49661545  0.98768883     0.78000
C252        C  0.12025471  0.36663640  0.98723218     0.79100
C253        C  0.19782240  0.42465109  0.88010571     0.78200
Zn254      Zn  0.17617868  0.37664458  0.51767769     1.49700
Zn255      Zn  0.23356373  0.41913776  0.45742798     1.49400
Zn256      Zn  0.16538039  0.41559443  0.45052695     1.49100
Zn257      Zn  0.21205422  0.45401959  0.51719583     1.49500
O258        O  0.19660462  0.41584969  0.48560748    -1.83100
O259        O  0.19568079  0.34812971  0.50487901    -0.73700
O260        O  0.22735549  0.42120730  0.40151046    -0.73600
O261        O  0.12111759  0.37827115  0.46285483    -0.73100
O262        O  0.23703842  0.37949505  0.46687364    -0.73800
O263        O  0.12713539  0.35160586  0.51041486    -0.73400
O264        O  0.17829252  0.41441128  0.39593907    -0.73900
O265        O  0.18909867  0.47831682  0.50831580    -0.73300
O266        O  0.27592352  0.45983215  0.47024342    -0.74100
O267        O  0.16185057  0.45598218  0.45611904    -0.73500
O268        O  0.25828000  0.48564563  0.50694929    -0.73900
O269        O  0.20889786  0.44288226  0.57147039    -0.73900
O270        O  0.18489925  0.38916980  0.57356252    -0.73600
C271        C  0.22029764  0.35321122  0.48521163     0.78100
C272        C  0.20450331  0.41854415  0.38125999     0.78600
C273        C  0.10926995  0.35579568  0.48749110     0.77600
C274        C  0.17159636  0.47775166  0.48148951     0.78000
C275        C  0.28087855  0.48471800  0.48909402     0.79100
C276        C  0.19824899  0.41672859  0.58991057     0.78200
C277        C  0.20732034  0.41239158  0.77412180     0.19700
C278        C  0.23252932  0.42858679  0.74792729    -0.18400
C279        C  0.22705467  0.42276074  0.70932518    -0.10700
C280        C  0.19626981  0.40016860  0.69619633     0.22000
C281        C  0.17138939  0.38284567  0.72244683    -0.20000
C282        C  0.17674041  0.38907181  0.76109957    -0.10800
C283        C  0.18979085  0.39480510  0.65522043    -0.15000
C284        C  0.20297459  0.41976749  0.63100910    -0.28900
C285        C  0.21387190  0.41962388  0.81484309    -0.03100
C286        C  0.19172221  0.41852838  0.83935880    -0.39700
H287        H  0.25640577  0.44620435  0.75733564     0.13100
H288        H  0.24695358  0.43582766  0.68974944     0.12700
H289        H  0.14762222  0.36501487  0.71297056     0.12200
H290        H  0.15706204  0.37538936  0.78072201     0.12400
H291        H  0.17286245  0.37062554  0.64521420     0.15200
H292        H  0.21789787  0.44414521  0.64189191     0.13900
H293        H  0.23798001  0.42726558  0.82458680     0.11600
H294        H  0.16820895  0.41283959  0.82936586     0.13600
C295        C  0.19294238  0.42319898  0.27433953     0.19700
C296        C  0.16774135  0.40543227  0.24924881    -0.18400
C297        C  0.17279735  0.41020512  0.21025657    -0.10700
C298        C  0.20311530  0.43332204  0.19561497     0.22000
C299        C  0.22799660  0.45186718  0.22075806    -0.20000
C300        C  0.22309773  0.44671608  0.25970586    -0.10800
C301        C  0.20915758  0.43918340  0.15438745    -0.15000
C302        C  0.19508532  0.41524662  0.12888417    -0.28900
C303        C  0.18676029  0.41781250  0.31562564    -0.03100
C304        C  0.20962346  0.42155600  0.33990439    -0.39700
H305        H  0.14415044  0.38763852  0.25984971     0.13100
H306        H  0.15280760  0.39620513  0.19168003     0.12700
H307        H  0.25138208  0.47017611  0.21019664     0.12200
H308        H  0.24275585  0.46163794  0.27830160     0.12400
H309        H  0.22674375  0.46342280  0.14496926     0.15200
H310        H  0.17923828  0.39058204  0.13844094     0.13900
H311        H  0.16257525  0.40989978  0.32615174     0.11600
H312        H  0.23328424  0.42755617  0.32924010     0.13600
C313        C  0.95424826  0.26696532  0.52933886     0.19700
C314        C  0.97414735  0.30069105  0.52672029    -0.18400
C315        C  0.00733827  0.31471150  0.52116740    -0.10700
C316        C  0.02170440  0.29537609  0.51861272     0.22000
C317        C  0.00208126  0.26165847  0.52246735    -0.20000
C318        C  0.96857491  0.24747862  0.52734897    -0.10800
C319        C  0.05722687  0.31053806  0.51332654    -0.15000
C320        C  0.07371143  0.33606089  0.49012779    -0.28900
C321        C  0.91894614  0.25368057  0.53458549    -0.03100
C322        C  0.89597441  0.22381096  0.52389827    -0.39700
H323        H  0.96390517  0.31634414  0.52859255     0.13100
H324        H  0.02186250  0.34083043  0.51946634     0.12700
H325        H  0.01264594  0.24628186  0.52121202     0.12200
H326        H  0.95412942  0.22145110  0.53013539     0.12400
H327        H  0.06983365  0.30082070  0.52877677     0.15200
H328        H  0.06038670  0.34405806  0.47311750     0.13900
H329        H  0.91149655  0.27048984  0.54470568     0.11600
H330        H  0.90267237  0.20717969  0.51141219     0.13600
C331        C  0.02803011  0.32878789  0.98120360     0.19700
C332        C  0.01292120  0.30121335  0.00459297    -0.18400
C333        C  0.97924492  0.28293665  0.00734204    -0.10700
C334        C  0.96014544  0.29198067  0.98682941     0.22000
C335        C  0.97542735  0.31930561  0.96337206    -0.20000
C336        C  0.00883044  0.33747353  0.96072288    -0.10800
C337        C  0.92441417  0.27464077  0.98889542    -0.15000
C338        C  0.90548711  0.24987844  0.01221053    -0.28900
C339        C  0.06346749  0.35029020  0.97830943    -0.03100
C340        C  0.08545580  0.34288053  0.99020005    -0.39700
H341        H  0.02681087  0.29399788  0.02139922     0.13100
H342        H  0.96852949  0.26204404  0.02570042     0.12700
H343        H  0.96145218  0.32694381  0.94725022     0.12200
H344        H  0.01973576  0.35864023  0.94262315     0.12400
H345        H  0.91293879  0.28374832  0.97038732     0.15200
H346        H  0.91556238  0.23977298  0.03124715     0.13900
H347        H  0.07191075  0.37378126  0.96523420     0.11600
H348        H  0.07816398  0.31942298  0.00247107     0.13600
C349        C  0.77260539  0.19902372  0.80209842     0.19700
C350        C  0.74505748  0.18553617  0.77975076    -0.18400
C351        C  0.74770344  0.18983911  0.74060176    -0.10700
C352        C  0.77819167  0.20727963  0.72286399     0.22000
C353        C  0.80569649  0.22055398  0.74531868    -0.20000
C354        C  0.80302469  0.21636114  0.78440791    -0.10800
C355        C  0.78266942  0.21213369  0.68128976    -0.15000
C356        C  0.75957733  0.19472648  0.65621556    -0.28900
C357        C  0.76891172  0.19447007  0.84365678    -0.03100
C358        C  0.79043504  0.21612656  0.86769574    -0.39700
H359        H  0.72136806  0.17208426  0.79270988     0.13100
H360        H  0.72573483  0.17976446  0.72475989     0.12700
H361        H  0.82945285  0.23392466  0.73250646     0.12200
H362        H  0.82488937  0.22628787  0.80052285     0.12400
H363        H  0.80651357  0.22972450  0.67081259     0.15200
H364        H  0.73587297  0.17615498  0.66560437     0.13900
H365        H  0.74721964  0.17367537  0.85474359     0.11600
H366        H  0.81107310  0.23804865  0.85689413     0.13600
C367        C  0.78589683  0.19730818  0.30233857     0.19700
C368        C  0.78506508  0.22050086  0.27913308    -0.18400
C369        C  0.78725113  0.21880936  0.24001592    -0.10700
C370        C  0.78988853  0.19351987  0.22303240     0.22000
C371        C  0.79133133  0.17058541  0.24609434    -0.20000
C372        C  0.78905123  0.17221458  0.28541357    -0.10800
C373        C  0.79141848  0.19099853  0.18137764    -0.15000
C374        C  0.77553581  0.20049574  0.15876960    -0.28900
C375        C  0.78282362  0.20025484  0.34375859    -0.03100
C376        C  0.79031035  0.18486847  0.36981478    -0.39700
H377        H  0.78288230  0.24018770  0.29133345     0.13100
H378        H  0.78720400  0.23758425  0.22317092     0.12700
H379        H  0.79350988  0.15099008  0.23362320     0.12200
H380        H  0.78920362  0.15346534  0.30210305     0.12400
H381        H  0.80523805  0.18073786  0.16926707     0.15200
H382        H  0.76023255  0.20891898  0.17114780     0.13900
H383        H  0.77481871  0.21678107  0.35325733     0.11600
H384        H  0.79920072  0.16886921  0.36152432     0.13600
C385        C  0.42814766  0.60741818  0.47800293     0.19700
C386        C  0.39976855  0.60468594  0.46405731    -0.18400
C387        C  0.37134136  0.57488039  0.46390455    -0.10700
C388        C  0.37077326  0.54696612  0.47718176     0.22000
C389        C  0.39942896  0.54929762  0.48966090    -0.20000
C390        C  0.42792453  0.57941887  0.49049292    -0.10800
C391        C  0.34020256  0.51554174  0.47817792    -0.15000
C392        C  0.31280364  0.51417594  0.48970989    -0.28900
C393        C  0.45738080  0.63987707  0.47806317    -0.03100
C394        C  0.48079992  0.64991179  0.50381548    -0.39700
H395        H  0.39946490  0.62583522  0.45379541     0.13100
H396        H  0.34976231  0.57362536  0.45319820     0.12700
H397        H  0.39956353  0.52797223  0.49953573     0.12200
H398        H  0.44969923  0.58069340  0.50045639     0.12400
H399        H  0.34034012  0.49356589  0.47043217     0.15200
H400        H  0.31369488  0.53605301  0.50022759     0.13900
H401        H  0.45823188  0.65717532  0.45766434     0.11600
H402        H  0.47954266  0.63364887  0.52585307     0.13600
C403        C  0.71447047  0.01849928  0.51521891     0.19700
C404        C  0.71861501  0.99940814  0.48787459    -0.18400
C405        C  0.70002947  0.96552100  0.48917514    -0.10700
C406        C  0.67714530  0.94999300  0.51831460     0.22000
C407        C  0.67389023  0.96913125  0.54635429    -0.20000
C408        C  0.69240833  0.00289949  0.54503835    -0.10800
C409        C  0.65476023  0.91431204  0.51955068    -0.15000
C410        C  0.65880278  0.89219234  0.50004792    -0.28900
C411        C  0.73309257  0.05448315  0.51168302    -0.03100
C412        C  0.72183914  0.07345453  0.52503922    -0.39700
H413        H  0.73558357  0.01078216  0.46475092     0.13100
H414        H  0.70302614  0.95181460  0.46667121     0.12700
H415        H  0.65665898  0.95789323  0.56929014     0.12200
H416        H  0.68931419  0.01664039  0.56745504     0.12400
H417        H  0.63365278  0.90582850  0.53779790     0.15200
H418        H  0.68025215  0.89953466  0.48289880     0.13900
H419        H  0.75564175  0.06542603  0.49581866     0.11600
H420        H  0.69839064  0.06248420  0.53884154     0.13600
C421        C  0.44016607  0.61737624  0.00924512     0.19700
C422        C  0.42499206  0.60272225  0.97536225    -0.18400
C423        C  0.39301602  0.57756045  0.97525889    -0.10700
C424        C  0.37549958  0.56597128  0.00933093     0.22000
C425        C  0.39090212  0.58019192  0.04333673    -0.20000
C426        C  0.42291680  0.60549282  0.04341287    -0.10800
C427        C  0.34097731  0.54007744  0.01051562    -0.15000
C428        C  0.32610876  0.51956632  0.98175576    -0.28900
C429        C  0.47341150  0.64568992  0.00727500    -0.03100
C430        C  0.48571436  0.66891558  0.03385449    -0.39700
H431        H  0.43764088  0.61146176  0.94864204     0.13100
H432        H  0.38208595  0.56810058  0.94826749     0.12700
H433        H  0.37807376  0.57174128  0.06999672     0.12200
H434        H  0.43393568  0.61553276  0.07024467     0.12400
H435        H  0.32742756  0.53748151  0.03637171     0.15200
H436        H  0.33940250  0.52055066  0.95634642     0.13900
H437        H  0.48691464  0.64934056  0.98111066     0.11600
H438        H  0.47189235  0.66684152  0.05922088     0.13600
C439        C  0.69830399  0.96113571  0.99353118     0.19700
C440        C  0.71402122  0.98103814  0.02456472    -0.18400
C441        C  0.72561853  0.01445059  0.02327104    -0.10700
C442        C  0.72205782  0.02889449  0.99058023     0.22000
C443        C  0.70714803  0.00913912  0.95920276    -0.20000
C444        C  0.69570539  0.97579387  0.96043101    -0.10800
C445        C  0.73191602  0.06392294  0.98869678    -0.15000
C446        C  0.75399988  0.08684624  0.01137048    -0.28900
C447        C  0.68381977  0.92526067  0.99734277    -0.03100
C448        C  0.65887926  0.90397192  0.97640530    -0.39700
H449        H  0.71642393  0.97053712  0.05041210     0.13100
H450        H  0.73630459  0.02853537  0.04841152     0.12700
H451        H  0.70420332  0.01954831  0.93358841     0.12200
H452        H  0.68481226  0.96173240  0.93533818     0.12400
H453        H  0.72072762  0.07113706  0.96739879     0.15200
H454        H  0.76665771  0.08048262  0.03152453     0.13900
H455        H  0.69167980  0.91617421  0.02042363     0.11600
H456        H  0.64920848  0.91282049  0.95516170     0.13600
C457        C  0.56424932  0.77449474  0.79569095     0.19700
C458        C  0.57678544  0.80134228  0.77152795    -0.18400
C459        C  0.57741625  0.79746328  0.73243735    -0.10700
C460        C  0.56490317  0.76639118  0.71645726     0.22000
C461        C  0.55212977  0.73949840  0.74062591    -0.20000
C462        C  0.55157358  0.74339641  0.77976426    -0.10800
C463        C  0.56538570  0.76114409  0.67498695    -0.15000
C464        C  0.56752452  0.78269284  0.64921088    -0.28900
C465        C  0.56492247  0.77999650  0.83716884    -0.03100
C466        C  0.56498231  0.75931008  0.86264840    -0.39700
H467        H  0.58675800  0.82554684  0.78300052     0.13100
H468        H  0.58838380  0.81899534  0.71512398     0.12700
H469        H  0.54228405  0.71530876  0.72915314     0.12200
H470        H  0.54084209  0.72195317  0.79725099     0.12400
H471        H  0.56288719  0.73833499  0.66538185     0.15200
H472        H  0.56832388  0.80483245  0.65819799     0.13900
H473        H  0.56739726  0.80275899  0.84692992     0.11600
H474        H  0.56437827  0.73732798  0.85332505     0.13600
C475        C  0.60219168  0.78983616  0.29456993     0.19700
C476        C  0.62759144  0.79359266  0.27092502    -0.18400
C477        C  0.62540470  0.79469885  0.23155411    -0.10700
C478        C  0.59776734  0.79235259  0.21529522     0.22000
C479        C  0.57290939  0.78951613  0.23906347    -0.20000
C480        C  0.57516750  0.78862660  0.27810000    -0.10800
C481        C  0.59250683  0.79080063  0.17399026    -0.15000
C482        C  0.61569127  0.80108018  0.14710440    -0.28900
C483        C  0.60431798  0.78771115  0.33624760    -0.03100
C484        C  0.57777429  0.77190845  0.35815937    -0.39700
H485        H  0.64881851  0.79493105  0.28289870     0.13100
H486        H  0.64488575  0.79646648  0.21411416     0.12700
H487        H  0.55148359  0.78794011  0.22734465     0.12200
H488        H  0.55568739  0.78725627  0.29519965     0.12400
H489        H  0.56772021  0.78092671  0.16530711     0.15200
H490        H  0.64084129  0.81230368  0.15459324     0.13900
H491        H  0.62792838  0.79905582  0.34898137     0.11600
H492        H  0.55429214  0.75908188  0.34520944     0.13600
C493        C  0.82833792  0.37333281  0.47869116     0.19700
C494        C  0.82618193  0.38716584  0.44479588    -0.18400
C495        C  0.83052557  0.41843968  0.44412478    -0.10700
C496        C  0.83664582  0.43654836  0.47744130     0.22000
C497        C  0.84025317  0.42335009  0.51116867    -0.20000
C498        C  0.83600387  0.39209893  0.51184724    -0.10800
C499        C  0.83731376  0.46815604  0.47636552    -0.15000
C500        C  0.82757815  0.47907932  0.50595830    -0.28900
C501        C  0.81999242  0.33866637  0.47849982    -0.03100
C502        C  0.82570782  0.32380031  0.50708829    -0.39700
H503        H  0.82035370  0.37341435  0.41878893     0.13100
H504        H  0.82781729  0.42800320  0.41770206     0.12700
H505        H  0.84590932  0.43689077  0.53727085     0.12200
H506        H  0.83767239  0.38256173  0.53871110     0.12400
H507        H  0.84217890  0.48067573  0.44949896     0.15200
H508        H  0.81998783  0.46511532  0.53189358     0.13900
H509        H  0.80770370  0.32445670  0.45378778     0.11600
H510        H  0.83884196  0.33740109  0.53162662     0.13600
C511        C  0.68957102  0.71090083  0.49226792     0.19700
C512        C  0.72316237  0.72462274  0.49028642    -0.18400
C513        C  0.73708779  0.70481270  0.48941446    -0.10700
C514        C  0.71753414  0.67082417  0.48963560     0.22000
C515        C  0.68400674  0.65727293  0.49053517    -0.20000
C516        C  0.67018603  0.67695851  0.49210877    -0.10800
C517        C  0.73076937  0.64849744  0.48750612    -0.15000
C518        C  0.75942908  0.65530773  0.50148348    -0.28900
C519        C  0.67477164  0.73191927  0.49291398    -0.03100
C520        C  0.64768400  0.72360183  0.51298642    -0.39700
H521        H  0.73862494  0.75068324  0.48973548     0.13100
H522        H  0.76301701  0.71610875  0.48774963     0.12700
H523        H  0.66835875  0.63122781  0.49019190     0.12200
H524        H  0.64421291  0.66551364  0.49237747     0.12400
H525        H  0.71514035  0.62445191  0.47613770     0.15200
H526        H  0.77453564  0.67841245  0.51517503     0.13900
H527        H  0.68614984  0.75422764  0.47668870     0.11600
H528        H  0.63781546  0.70228219  0.53090313     0.13600
C529        C  0.83241391  0.44361405  0.01545691     0.19700
C530        C  0.82772831  0.42493682  0.04783457    -0.18400
C531        C  0.82787383  0.39579602  0.04553369    -0.10700
C532        C  0.83230495  0.38436255  0.01053442     0.22000
C533        C  0.83859045  0.40373716  0.97843714    -0.20000
C534        C  0.83842924  0.43293289  0.98070717    -0.10800
C535        C  0.82913357  0.35185920  0.00628766    -0.15000
C536        C  0.81001246  0.32699015  0.02919515    -0.28900
C537        C  0.82864213  0.47264912  0.01907549    -0.03100
C538        C  0.83693570  0.49527438  0.99208974    -0.39700
H539        H  0.82336633  0.43264522  0.07502002     0.13100
H540        H  0.82420639  0.38221198  0.07121217     0.12700
H541        H  0.84232277  0.39561336  0.95120179     0.12200
H542        H  0.84182253  0.44617104  0.95486790     0.12400
H543        H  0.84047791  0.34754610  0.98192213     0.15200
H544        H  0.79694087  0.33055440  0.05218596     0.13900
H545        H  0.81791508  0.47516380  0.04517922     0.11600
H546        H  0.84870815  0.49425225  0.96622783     0.13600
C547        C  0.70561282  0.72935510  0.01352863     0.19700
C548        C  0.73923380  0.74358485  0.01122446    -0.18400
C549        C  0.75360962  0.72420648  0.01090381    -0.10700
C550        C  0.73444977  0.69024640  0.01337633     0.22000
C551        C  0.70101966  0.67632904  0.01715122    -0.20000
C552        C  0.68679622  0.69554430  0.01759124    -0.10800
C553        C  0.74751699  0.66796526  0.00988654    -0.15000
C554        C  0.77822367  0.67598140  0.01607858    -0.28900
C555        C  0.69014245  0.74964605  0.01183553    -0.03100
C556        C  0.66118224  0.73813293  0.99589908    -0.39700
H557        H  0.75428009  0.76959475  0.00852555     0.13100
H558        H  0.77945245  0.73579553  0.00753797     0.12700
H559        H  0.68570066  0.65030944  0.01951884     0.12200
H560        H  0.66093315  0.68375303  0.02112003     0.12400
H561        H  0.73033473  0.64301662  0.00259241     0.15200
H562        H  0.79572144  0.70016386  0.02536688     0.13900
H563        H  0.70236752  0.77379693  0.02395602     0.11600
H564        H  0.65007395  0.71456527  0.98230360     0.13600
C565        C  0.80755850  0.59488593  0.71258421     0.19700
C566        C  0.80126291  0.61452151  0.73671728    -0.18400
C567        C  0.80288712  0.61224362  0.77591535    -0.10700
C568        C  0.81140933  0.59060477  0.79150737     0.22000
C569        C  0.81865456  0.57176775  0.76727073    -0.20000
C570        C  0.81660857  0.57371594  0.72826810    -0.10800
C571        C  0.81437956  0.58797044  0.83270990    -0.15000
C572        C  0.79658184  0.59299915  0.85854635    -0.28900
C573        C  0.80558016  0.59729009  0.67110383    -0.03100
C574        C  0.79543423  0.57114875  0.64885199    -0.39700
H575        H  0.79479546  0.63140090  0.72522536     0.13100
H576        H  0.79813314  0.62785703  0.79382446     0.12700
H577        H  0.82579671  0.55534155  0.77858410     0.12200
H578        H  0.82271290  0.55905021  0.71040281     0.12400
H579        H  0.83081823  0.58010911  0.84198675     0.15200
H580        H  0.77858921  0.59885867  0.84966444     0.13900
H581        H  0.81214778  0.62062992  0.65885945     0.11600
H582        H  0.78687705  0.54755240  0.66161687     0.13600
C583        C  0.81884351  0.57777104  0.29171599     0.19700
C584        C  0.84510278  0.59961350  0.26931740    -0.18400
C585        C  0.84264350  0.59939250  0.22993420    -0.10700
C586        C  0.81389639  0.57686547  0.21222869     0.22000
C587        C  0.78797217  0.55461538  0.23465090    -0.20000
C588        C  0.79030165  0.55508547  0.27389391    -0.10800
C589        C  0.81041199  0.57450251  0.17054631    -0.15000
C590        C  0.82722806  0.59944192  0.14675610    -0.28900
C591        C  0.82182536  0.57838345  0.33346861    -0.03100
C592        C  0.79661042  0.57089681  0.35664908    -0.39700
H593        H  0.86749672  0.61701242  0.28235275     0.13100
H594        H  0.86345966  0.61629485  0.21350955     0.12700
H595        H  0.76575344  0.53670205  0.22171506     0.12200
H596        H  0.76992624  0.53719941  0.29014924     0.12400
H597        H  0.79224639  0.55138950  0.15909593     0.15200
H598        H  0.84408698  0.62326296  0.15768473     0.13900
H599        H  0.84536089  0.58633318  0.34529853     0.11600
H600        H  0.77372164  0.56539609  0.34476539     0.13600
C601        C  0.44176115  0.81403421  0.51927333     0.19700
C602        C  0.44023784  0.84251138  0.51609506    -0.18400
C603        C  0.41067270  0.84156555  0.51985753    -0.10700
C604        C  0.38231621  0.81211922  0.52770528     0.22000
C605        C  0.38417132  0.78394940  0.53199690    -0.20000
C606        C  0.41345295  0.78479838  0.52758854    -0.10800
C607        C  0.35030236  0.80937725  0.53217117    -0.15000
C608        C  0.34154159  0.82859320  0.51461905    -0.28900
C609        C  0.47303290  0.81503213  0.51544166    -0.03100
C610        C  0.47514927  0.79089404  0.49844522    -0.39700
H611        H  0.46186831  0.86538954  0.51029557     0.13100
H612        H  0.41018265  0.86386618  0.51726057     0.12700
H613        H  0.36275704  0.76104324  0.53844262     0.12200
H614        H  0.41400891  0.76261237  0.53135661     0.12400
H615        H  0.33213670  0.78851562  0.54780612     0.15200
H616        H  0.35864286  0.84837595  0.49685366     0.13900
H617        H  0.49441705  0.83571488  0.52675831     0.11600
H618        H  0.45405949  0.77147921  0.48492118     0.13600
C619        C  0.17577927  0.61788619  0.49747129     0.19700
C620        C  0.17151999  0.59951585  0.46475693    -0.18400
C621        C  0.16920615  0.56919020  0.46690386    -0.10700
C622        C  0.17062345  0.55649556  0.50205719     0.22000
C623        C  0.17334092  0.57425510  0.53487247    -0.20000
C624        C  0.17566762  0.60451975  0.53270747    -0.10800
C625        C  0.17277179  0.52672652  0.50555978    -0.15000
C626        C  0.16362323  0.50373913  0.47877673    -0.28900
C627        C  0.18106722  0.65113551  0.49385664    -0.03100
C628        C  0.19893069  0.67486843  0.51842299    -0.39700
H629        H  0.17131553  0.60923355  0.43732137     0.13100
H630        H  0.16778430  0.55660697  0.44088150     0.12700
H631        H  0.17434538  0.56496240  0.56228917     0.12200
H632        H  0.17768912  0.61746306  0.55864622     0.12400
H633        H  0.18351331  0.52425711  0.53115705     0.15200
H634        H  0.15140353  0.50461423  0.45374779     0.13900
H635        H  0.17174989  0.65672441  0.46906506     0.11600
H636        H  0.20985604  0.67001559  0.54216402     0.13600
C637        C  0.04276229  0.72504035  0.49745538     0.19700
C638        C  0.02190213  0.71910019  0.52834895    -0.18400
C639        C  0.98878524  0.69778462  0.52509505    -0.10700
C640        C  0.97577511  0.68216994  0.49060110     0.22000
C641        C  0.99651249  0.68876803  0.45948060    -0.20000
C642        C  0.02954357  0.71023314  0.46264895    -0.10800
C643        C  0.94108297  0.65780384  0.48648116    -0.15000
C644        C  0.91773740  0.65785513  0.50783968    -0.28900
C645        C  0.07811422  0.74557638  0.50295306    -0.03100
C646        C  0.09959093  0.74208657  0.48168672    -0.39700
H647        H  0.03138351  0.73016071  0.55544740     0.13100
H648        H  0.97370316  0.69280111  0.54998164     0.12700
H649        H  0.98710032  0.67723373  0.43256396     0.12200
H650        H  0.04452356  0.71500437  0.43772422     0.12400
H651        H  0.93452534  0.63966206  0.46447751     0.15200
H652        H  0.92375443  0.67691542  0.52844846     0.13900
H653        H  0.08648840  0.76170330  0.52716957     0.11600
H654        H  0.09134635  0.72440783  0.45906418     0.13600
C655        C  0.45797800  0.83240376  0.00899932     0.19700
C656        C  0.44341912  0.83730098  0.97767829    -0.18400
C657        C  0.41500757  0.83844285  0.98193144    -0.10700
C658        C  0.40068309  0.83495717  0.01783368     0.22000
C659        C  0.41597109  0.83145969  0.04930405    -0.20000
C660        C  0.44445581  0.83057147  0.04510349    -0.10800
C661        C  0.36859489  0.83197275  0.02332430    -0.15000
C662        C  0.35546120  0.84328319  0.99885835    -0.28900
C663        C  0.48632234  0.82808294  0.00266194    -0.03100
C664        C  0.49535489  0.81321956  0.02765874    -0.39700
H665        H  0.45338758  0.83902080  0.94960184     0.13100
H666        H  0.40370167  0.84058814  0.95684859     0.12700
H667        H  0.40556837  0.82894642  0.07728325     0.12200
H668        H  0.45545150  0.82817745  0.07029527     0.12400
H669        H  0.35500198  0.81943472  0.04854832     0.15200
H670        H  0.36915877  0.85737284  0.97451327     0.13900
H671        H  0.49877676  0.83536050  0.97554337     0.11600
H672        H  0.48249213  0.80455371  0.05427076     0.13600
C673        C  0.19806777  0.58076762  0.00621356     0.19700
C674        C  0.22152381  0.60853941  0.02466985    -0.18400
C675        C  0.22138778  0.63764678  0.02289856    -0.10700
C676        C  0.19734912  0.63970866  0.00300359     0.22000
C677        C  0.17376174  0.61193838  0.98457028    -0.20000
C678        C  0.17391233  0.58269185  0.98631020    -0.10800
C679        C  0.19745367  0.67085309  0.99935187    -0.15000
C680        C  0.21214401  0.69515984  0.02433599    -0.28900
C681        C  0.20025106  0.55077666  0.00851431    -0.03100
C682        C  0.18424782  0.52471715  0.98612560    -0.39700
H683        H  0.24052587  0.60792330  0.04000159     0.13100
H684        H  0.24081164  0.65861570  0.03632087     0.12700
H685        H  0.15510068  0.61285886  0.96884712     0.12200
H686        H  0.15496488  0.56184502  0.97219470     0.12400
H687        H  0.18581007  0.67408745  0.97509473     0.15200
H688        H  0.22273512  0.69171185  0.04939231     0.13900
H689        H  0.21706796  0.55078258  0.02865845     0.11600
H690        H  0.16797518  0.52413573  0.96493542     0.13600
C691        C  0.05653211  0.73596551  0.99655395     0.19700
C692        C  0.03784230  0.72134867  0.96462567    -0.18400
C693        C  0.00441185  0.70747660  0.96620684    -0.10700
C694        C  0.98869587  0.70720882  0.00020599     0.22000
C695        C  0.00748120  0.72265855  0.03191454    -0.20000
C696        C  0.04103223  0.73678276  0.03024577    -0.10800
C697        C  0.95290695  0.69024945  0.00388629    -0.15000
C698        C  0.93337982  0.66547061  0.98133932    -0.28900
C699        C  0.09177574  0.74856258  0.99392006    -0.03100
C700        C  0.11345130  0.77200836  0.01631548    -0.39700
H701        H  0.04917965  0.72060514  0.93826691     0.13100
H702        H  0.99112017  0.69700890  0.94066753     0.12700
H703        H  0.99608246  0.72293709  0.05841571     0.12200
H704        H  0.05451815  0.74728280  0.05567902     0.12400
H705        H  0.94248700  0.69657095  0.02756530     0.15200
H706        H  0.94356867  0.65750942  0.95910436     0.13900
H707        H  0.10027555  0.73871780  0.97175720     0.11600
H708        H  0.10570649  0.78353607  0.03715351     0.13600
C709        C  0.21703921  0.78371388  0.71916106     0.19700
C710        C  0.24402710  0.79212652  0.74136343    -0.18400
C711        C  0.24181083  0.79222110  0.78069960    -0.10700
C712        C  0.21235594  0.78357195  0.79888211     0.22000
C713        C  0.18504733  0.77410729  0.77679660    -0.20000
C714        C  0.18735425  0.77440044  0.73727544    -0.10800
C715        C  0.20964773  0.78367699  0.84076697    -0.15000
C716        C  0.23394475  0.80549605  0.86200740    -0.28900
C717        C  0.22083255  0.78390851  0.67739608    -0.03100
C718        C  0.20210802  0.78825503  0.65302011    -0.39700
H719        H  0.26703609  0.79886616  0.72818970     0.13100
H720        H  0.26312341  0.79858761  0.79681965     0.12700
H721        H  0.16198512  0.76683694  0.79015159     0.12200
H722        H  0.16581040  0.76679780  0.72111770     0.12400
H723        H  0.18699039  0.76638954  0.85417978     0.15200
H724        H  0.25565367  0.82424668  0.84828046     0.13900
H725        H  0.24104659  0.78201730  0.66634406     0.11600
H726        H  0.18287829  0.79199982  0.66345843     0.13600
C727        C  0.25413578  0.82079907  0.29846555     0.19700
C728        C  0.25486326  0.84577558  0.27710154    -0.18400
C729        C  0.25504987  0.84460401  0.23759621    -0.10700
C730        C  0.25492411  0.81851369  0.21866777     0.22000
C731        C  0.25561314  0.79428859  0.24009223    -0.20000
C732        C  0.25506945  0.79528416  0.27952275    -0.10800
C733        C  0.25465913  0.81588483  0.17679523    -0.15000
C734        C  0.24237111  0.82932494  0.15404220    -0.28900
C735        C  0.25250531  0.82196394  0.34036209    -0.03100
C736        C  0.23673058  0.79496694  0.36142898    -0.39700
H737        H  0.25470817  0.86596077  0.29103207     0.13100
H738        H  0.25564169  0.86431104  0.22208925     0.12700
H739        H  0.25611657  0.77424338  0.22625770     0.12200
H740        H  0.25564585  0.77618219  0.29508564     0.12400
H741        H  0.26323365  0.80067049  0.16439446     0.15200
H742        H  0.23195507  0.84304032  0.16596820     0.13900
H743        H  0.26261785  0.84549315  0.35392875     0.11600
H744        H  0.22449089  0.77148558  0.34767904     0.13600
C745        C  0.57180005  0.37483985  0.46961024     0.19700
C746        C  0.60215329  0.37749057  0.47061214    -0.18400
C747        C  0.62988609  0.40769219  0.47412226    -0.10700
C748        C  0.62791900  0.43605748  0.47621162     0.22000
C749        C  0.59769725  0.43365055  0.47365509    -0.20000
C750        C  0.56975815  0.40324211  0.47075198    -0.10800
C751        C  0.65744624  0.46816860  0.48001684    -0.15000
C752        C  0.68181491  0.47191273  0.50159195    -0.28900
C753        C  0.54303487  0.34201885  0.46722926    -0.03100
C754        C  0.51450787  0.33431741  0.48314158    -0.39700
H755        H  0.60438453  0.35603626  0.46927310     0.13100
H756        H  0.65295379  0.40884440  0.47474755     0.12700
H757        H  0.59569402  0.45524037  0.47452224     0.12200
H758        H  0.54673406  0.40205430  0.46897437     0.12400
H759        H  0.65915929  0.48872009  0.46498403     0.15200
H760        H  0.67887027  0.45163640  0.51838765     0.13900
H761        H  0.54627488  0.32291161  0.45492729     0.11600
H762        H  0.51152992  0.35271422  0.49778686     0.13600
C763        C  0.61328773  0.18127177  0.50278977     0.19700
C764        C  0.59009676  0.17173599  0.53190847    -0.18400
C765        C  0.56253917  0.17437893  0.52767922    -0.10700
C766        C  0.55749147  0.18643164  0.49391562     0.22000
C767        C  0.58032350  0.19524382  0.46459200    -0.20000
C768        C  0.60768665  0.19248785  0.46874141    -0.10800
C769        C  0.53002827  0.19205323  0.48834961    -0.15000
C770        C  0.50320769  0.17980453  0.51014148    -0.28900
C771        C  0.64283659  0.17914349  0.50886873    -0.03100
C772        C  0.67009995  0.19590432  0.48823904    -0.39700
H773        H  0.59363811  0.16282367  0.55835744     0.13100
H774        H  0.54587620  0.16775825  0.55124581     0.12700
H775        H  0.57703191  0.20444414  0.43820672     0.12200
H776        H  0.62410905  0.19899636  0.44495812     0.12400
H777        H  0.53221816  0.20743640  0.46472114     0.15200
H778        H  0.49955523  0.16351186  0.53324357     0.13900
H779        H  0.64255205  0.16429792  0.53210972     0.11600
H780        H  0.67150002  0.21211883  0.46613139     0.13600
C781        C  0.27757906  0.96957869  0.49834098     0.19700
C782        C  0.29053640  0.99046395  0.46722659    -0.18400
C783        C  0.30465269  0.02400208  0.47169981    -0.10700
C784        C  0.30661010  0.03750365  0.50765399     0.22000
C785        C  0.29324357  0.01661708  0.53873579    -0.20000
C786        C  0.27859609  0.98297913  0.53415729    -0.10800
C787        C  0.32575345  0.07311315  0.51398528    -0.15000
C788        C  0.32916690  0.09510167  0.48799225    -0.28900
C789        C  0.26640342  0.93456206  0.49296113    -0.03100
C790        C  0.24449166  0.91078922  0.51537587    -0.39700
H791        H  0.29045543  0.98082638  0.43943094     0.13100
H792        H  0.31548515  0.03935117  0.44726746     0.12700
H793        H  0.29486283  0.02642512  0.56679867     0.12200
H794        H  0.26959699  0.96774240  0.55894190     0.12400
H795        H  0.33824062  0.08143408  0.54060586     0.15200
H796        H  0.31518952  0.08712631  0.46235106     0.13900
H797        H  0.27679645  0.92813349  0.46934307     0.11600
H798        H  0.23222336  0.91636792  0.53758243     0.13600
C799        C  0.26918774  0.31030922  0.46424353     0.19700
C800        C  0.30168772  0.32302458  0.45424628    -0.18400
C801        C  0.31573316  0.30361101  0.45458500    -0.10700
C802        C  0.29755126  0.27075388  0.46463552     0.22000
C803        C  0.26463375  0.25745555  0.47294402    -0.20000
C804        C  0.25055374  0.27710838  0.47309062    -0.10800
C805        C  0.31324774  0.25074778  0.46710423    -0.15000
C806        C  0.34246215  0.26323280  0.48260331    -0.28900
C807        C  0.25615165  0.33276570  0.46439336    -0.03100
C808        C  0.22990061  0.32812531  0.48404256    -0.39700
H809        H  0.31651225  0.34833180  0.44672635     0.13100
H810        H  0.34095942  0.31437509  0.44698751     0.12700
H811        H  0.25004216  0.23209033  0.48025975     0.12200
H812        H  0.22520175  0.26621146  0.47987646     0.12400
H813        H  0.30061570  0.22583612  0.45731482     0.15200
H814        H  0.35333287  0.28733226  0.49487102     0.13900
H815        H  0.27022157  0.35539084  0.44912892     0.11600
H816        H  0.21594535  0.30635402  0.50069719     0.13600
C817        C  0.42173160  0.21499212  0.70282979     0.19700
C818        C  0.40482056  0.19028448  0.72931765    -0.18400
C819        C  0.41000562  0.19656179  0.76796267    -0.10700
C820        C  0.43260479  0.22771101  0.78086133     0.22000
C821        C  0.45020980  0.25215277  0.75430818    -0.20000
C822        C  0.44473780  0.24598205  0.71570226    -0.10800
C823        C  0.43905123  0.23508246  0.82167294    -0.15000
C824        C  0.41618089  0.22003187  0.84838626    -0.28900
C825        C  0.41618759  0.20748944  0.66194866    -0.03100
C826        C  0.41943727  0.22969114  0.63651990    -0.39700
H827        H  0.38745692  0.16608508  0.72007181     0.13100
H828        H  0.39678673  0.17682544  0.78757682     0.12700
H829        H  0.46813638  0.27616193  0.76348864     0.12200
H830        H  0.45906906  0.26531575  0.69600956     0.12400
H831        H  0.46286013  0.25415000  0.82977791     0.15200
H832        H  0.39184316  0.20239123  0.84021978     0.13900
H833        H  0.40899711  0.18306328  0.65267766     0.11600
H834        H  0.42486675  0.25357312  0.64599102     0.13600
C835        C  0.41953820  0.21469366  0.20133004     0.19700
C836        C  0.43193548  0.19949163  0.22366524    -0.18400
C837        C  0.42641306  0.19658147  0.26264778    -0.10700
C838        C  0.40804535  0.20859484  0.28013744     0.22000
C839        C  0.39445036  0.22253140  0.25763708    -0.20000
C840        C  0.40026292  0.22576115  0.21863114    -0.10800
C841        C  0.40290726  0.20706366  0.32170878    -0.15000
C842        C  0.42553896  0.20987994  0.34574414    -0.28900
C843        C  0.42610338  0.21722474  0.16000290    -0.03100
C844        C  0.42585987  0.23992835  0.13794730    -0.39700
H845        H  0.44624439  0.19011832  0.21094430     0.13100
H846        H  0.43633724  0.18468370  0.27896243     0.12700
H847        H  0.37977157  0.23146498  0.27037456     0.12200
H848        H  0.38926151  0.23649004  0.20216415     0.12400
H849        H  0.38122258  0.20609692  0.33274857     0.15200
H850        H  0.44830432  0.21344432  0.33472885     0.13900
H851        H  0.43205595  0.20003701  0.14741951     0.11600
H852        H  0.42133487  0.25817905  0.15019559     0.13600
C853        C  0.57999257  0.39739642  0.97914350     0.19700
C854        C  0.60938971  0.39812988  0.98260269    -0.18400
C855        C  0.63805984  0.42743987  0.98730325    -0.10700
C856        C  0.63811639  0.45690702  0.98802344     0.22000
C857        C  0.60882648  0.45632497  0.98351582    -0.20000
C858        C  0.57991252  0.42680711  0.97959744    -0.10800
C859        C  0.66874523  0.48839405  0.99118759    -0.15000
C860        C  0.69356616  0.49174176  0.01180126    -0.28900
C861        C  0.55033547  0.36550443  0.97383430    -0.03100
C862        C  0.52105405  0.35802139  0.98745805    -0.39700
H863        H  0.61015817  0.37585087  0.98184543     0.13100
H864        H  0.66028646  0.42701390  0.98939803     0.12700
H865        H  0.60832140  0.47873371  0.98325314     0.12200
H866        H  0.55771920  0.42707609  0.97609246     0.12400
H867        H  0.67093868  0.50910135  0.97602578     0.15200
H868        H  0.69060292  0.47150363  0.02865347     0.13900
H869        H  0.55341336  0.34638011  0.96126601     0.11600
H870        H  0.51796081  0.37596581  0.00301730     0.13600
C871        C  0.56799824  0.20189792  0.00666131     0.19700
C872        C  0.56813489  0.17282738  0.01173966    -0.18400
C873        C  0.59727184  0.17278507  0.01290896    -0.10700
C874        C  0.62671318  0.20202136  0.00988501     0.22000
C875        C  0.62648180  0.23101975  0.00520895    -0.20000
C876        C  0.59751429  0.23099553  0.00332228    -0.10800
C877        C  0.65815563  0.20383316  0.01438902    -0.15000
C878        C  0.66473074  0.18078436  0.00294888    -0.28900
C879        C  0.53711152  0.20190873  0.00708728    -0.03100
C880        C  0.53291750  0.22289269  0.98627794    -0.39700
H881        H  0.54567777  0.15017646  0.01490428     0.13100
H882        H  0.59675968  0.15014778  0.01744132     0.12700
H883        H  0.64887956  0.25388667  0.00333740     0.12200
H884        H  0.59831646  0.25393937  0.00052011     0.12400
H885        H  0.67746768  0.22630672  0.02583085     0.15200
H886        H  0.64667519  0.15926451  0.98858440     0.13900
H887        H  0.51740522  0.18414614  0.02451297     0.11600
H888        H  0.55168010  0.23886179  0.96657802     0.13600
C889        C  0.32535094  0.05737590  0.98056541     0.19700
C890        C  0.29212928  0.03564612  0.98300574    -0.18400
C891        C  0.28017132  0.00216516  0.98184378    -0.10700
C892        C  0.30134668  0.99000786  0.97747014     0.22000
C893        C  0.33437570  0.01188181  0.97313325    -0.20000
C894        C  0.34630250  0.04517297  0.97490156    -0.10800
C895        C  0.29020046  0.95484817  0.97718543    -0.15000
C896        C  0.26397319  0.93270015  0.99625885    -0.28900
C897        C  0.33808497  0.09274756  0.98323945    -0.03100
C898        C  0.36554748  0.11202759  0.00149197    -0.39700
H899        H  0.27552827  0.04457721  0.98660560     0.13100
H900        H  0.25445174  0.98595476  0.98406859     0.12700
H901        H  0.35111697  0.00316241  0.96910595     0.12200
H902        H  0.37196782  0.06139675  0.97159885     0.12400
H903        H  0.30571411  0.94733255  0.96329772     0.15200
H904        H  0.24920455  0.94003806  0.01215231     0.13900
H905        H  0.32484754  0.10292420  0.97015183     0.11600
H906        H  0.37746832  0.10123254  0.01632167     0.16000
C907        C  0.27138570  0.31793675  0.00032421     0.19700
C908        C  0.26078996  0.28470708  0.00145508    -0.18400
C909        C  0.28311490  0.27400954  0.00339332    -0.10700
C910        C  0.31633299  0.29655526  0.00496670     0.22000
C911        C  0.32660419  0.32967038  0.00528949    -0.20000
C912        C  0.30448753  0.34026701  0.00282653    -0.10800
C913        C  0.34123698  0.28699415  0.00726093    -0.15000
C914        C  0.33782957  0.25919233  0.99330382    -0.28900
C915        C  0.24815132  0.32963343  0.99740993    -0.03100
C916        C  0.25537690  0.35556211  0.97602783    -0.39700
H917        H  0.23534186  0.26710054  0.00025088     0.13100
H918        H  0.27431589  0.24825984  0.00421546     0.12700
H919        H  0.35196348  0.34750568  0.00706906     0.12200
H920        H  0.31332194  0.36605850  0.00330314     0.12400
H921        H  0.36428347  0.30473861  0.01890764     0.15200
H922        H  0.31558607  0.24171345  0.97993521     0.13900
H923        H  0.22579182  0.31764614  0.01359721     0.11600
H924        H  0.27702719  0.36592410  0.95846693     0.13600
loop_ 
_geom_bond_atom_site_label_1 
_geom_bond_atom_site_label_2 
_geom_bond_distance 
_geom_bond_site_symmetry_2 
_ccdc_geom_bond_type 
Zn1           O5   1.958   1_554  S
Zn1           O6   2.019       .  S
Zn1          O10   2.040       .  S
Zn1          O17   2.026       .  S
Zn2           O5   1.963       .  S
Zn2           O7   2.009       .  S
Zn2           O9   2.026       .  S
Zn2          O13   2.030       .  S
Zn3           O5   1.957       .  S
Zn3           O8   2.020       .  S
Zn3          O11   2.037       .  S
Zn3          O14   2.013       .  S
Zn4           O5   1.955   1_554  S
Zn4          O12   2.025       .  S
Zn4          O15   2.000       .  S
Zn4          O16   2.019       .  S
O6           C18   1.276   1_554  A
O7           C19   1.272       .  A
O8           C20   1.275       .  A
O9           C18   1.274       .  A
O10          C20   1.276   1_554  A
O11          C19   1.277       .  A
O12          C21   1.275   1_554  A
O13          C22   1.274   1_556  A
O14          C21   1.272       .  A
O15          C22   1.271       .  A
O16          C23   1.275       .  A
O17          C23   1.274       .  A
C18         C914   1.479       .  S
C19         C824   1.477       .  S
C20         C862   1.483       .  S
C21         C880   1.475       .  S
C22         C898   1.473       .  S
C23         C844   1.479       .  S
Zn24         O28   1.975       .  S
Zn24         O29   2.036       .  S
Zn24         O33   2.039       .  S
Zn24         O40   2.032       .  S
Zn25         O28   1.947       .  S
Zn25         O30   2.010       .  S
Zn25         O32   2.003       .  S
Zn25         O36   1.991       .  S
Zn26         O28   1.958       .  S
Zn26         O31   2.007       .  S
Zn26         O34   2.023       .  S
Zn26         O37   2.005       .  S
Zn27         O28   1.980       .  S
Zn27         O35   2.044       .  S
Zn27         O38   2.066       .  S
Zn27         O39   2.040       .  S
O29          C41   1.276       .  A
O30          C42   1.270       .  A
O31          C43   1.273       .  A
O32          C41   1.271       .  A
O33          C43   1.274       .  A
O34          C42   1.273       .  A
O35          C44   1.277       .  A
O36          C45   1.270       .  A
O37          C44   1.272       .  A
O38          C45   1.278       .  A
O39          C46   1.277       .  A
O40          C46   1.277       .  A
C41         C826   1.476       .  S
C42         C754   1.477       .  S
C43         C770   1.483       .  S
C44         C842   1.476       .  S
C45         C806   1.477       .  S
C46         C788   1.483       .  S
Zn47         O51   1.955       .  S
Zn47         O52   2.016       .  S
Zn47         O56   2.001       .  S
Zn47         O63   2.017       .  S
Zn48         O51   1.958   1_556  S
Zn48         O53   2.006       .  S
Zn48         O55   2.020       .  S
Zn48         O59   2.019       .  S
Zn49         O51   1.979   1_556  S
Zn49         O54   2.048       .  S
Zn49         O57   2.045       .  S
Zn49         O60   2.030       .  S
Zn50         O51   1.964       .  S
Zn50         O58   2.020       .  S
Zn50         O61   2.025       .  S
Zn50         O62   2.029       .  S
O52          C64   1.274       .  A
O53          C65   1.272       .  A
O54          C66   1.277   1_556  A
O55          C64   1.272   1_556  A
O56          C66   1.271       .  A
O57          C65   1.276       .  A
O58          C67   1.274       .  A
O59          C68   1.275       .  A
O60          C67   1.277   1_556  A
O61          C68   1.273   1_554  A
O62          C69   1.273       .  A
O63          C69   1.273       .  A
C64         C662   1.478   1_554  S
C65         C716   1.477       .  S
C66         C680   1.476       .  S
C67         C700   1.479       .  S
C68         C896   1.479       .  S
C69         C734   1.480       .  S
Zn70         O74   1.951       .  S
Zn70         O75   2.013       .  S
Zn70         O79   2.010       .  S
Zn70         O86   1.994       .  S
Zn71         O74   1.955       .  S
Zn71         O76   2.007       .  S
Zn71         O78   2.012       .  S
Zn71         O82   2.019       .  S
Zn72         O74   1.969       .  S
Zn72         O77   2.041       .  S
Zn72         O80   2.033       .  S
Zn72         O83   2.023       .  S
Zn73         O74   1.970       .  S
Zn73         O81   2.042       .  S
Zn73         O84   2.036       .  S
Zn73         O85   2.047       .  S
O75          C87   1.272       .  A
O76          C88   1.274       .  A
O77          C89   1.276       .  A
O78          C87   1.271       .  A
O79          C89   1.272       .  A
O80          C88   1.274       .  A
O81          C90   1.277       .  A
O82          C91   1.274       .  A
O83          C90   1.276       .  A
O84          C91   1.274       .  A
O85          C92   1.278       .  A
O86          C92   1.271       .  A
C87         C628   1.474       .  S
C88         C608   1.480       .  S
C89         C736   1.478       .  S
C90         C790   1.483       .  S
C91         C718   1.482       .  S
C92         C646   1.475       .  S
Zn93         O97   1.974       .  S
Zn93         O98   2.027       .  S
Zn93        O102   2.044       .  S
Zn93        O109   2.046       .  S
Zn94         O97   1.955       .  S
Zn94         O99   2.026       .  S
Zn94        O101   2.024       .  S
Zn94        O105   2.024       .  S
Zn95         O97   1.957   1_556  S
Zn95        O100   2.007       .  S
Zn95        O103   2.036       .  S
Zn95        O106   2.017       .  S
Zn96         O97   1.951   1_556  S
Zn96        O104   2.015       .  S
Zn96        O107   2.017       .  S
Zn96        O108   2.005       .  S
O98         C110   1.274       .  A
O99         C111   1.274       .  A
O100        C112   1.275   1_556  A
O101        C110   1.276       .  A
O102        C112   1.276       .  A
O103        C111   1.275   1_556  A
O104        C113   1.274       .  A
O105        C114   1.275   1_554  A
O106        C113   1.272       .  A
O107        C114   1.273       .  A
O108        C115   1.272       .  A
O109        C115   1.277   1_554  A
C110        C590   1.480       .  S
C111        C860   1.481       .  S
C112        C554   1.483       .  S
C113        C572   1.476       .  S
C114        C538   1.479       .  S
C115        C698   1.478       .  S
Zn116       O120   1.944       .  S
Zn116       O121   1.998       .  S
Zn116       O125   1.995       .  S
Zn116       O132   1.991       .  S
Zn117       O120   1.984       .  S
Zn117       O122   2.042       .  S
Zn117       O124   2.067       .  S
Zn117       O128   2.039       .  S
Zn118       O120   1.965       .  S
Zn118       O123   2.035       .  S
Zn118       O126   2.012       .  S
Zn118       O129   2.036       .  S
Zn119       O120   1.970       .  S
Zn119       O127   2.040       .  S
Zn119       O130   2.016       .  S
Zn119       O131   2.040       .  S
O121        C133   1.270       .  A
O122        C134   1.277       .  A
O123        C135   1.275       .  A
O124        C133   1.278       .  A
O125        C135   1.270       .  A
O126        C134   1.273       .  A
O127        C136   1.275       .  A
O128        C137   1.278       .  A
O129        C136   1.276       .  A
O130        C137   1.274       .  A
O131        C138   1.275       .  A
O132        C138   1.269       .  A
C133        C500   1.481       .  S
C134        C592   1.477       .  S
C135        C752   1.473       .  S
C136        C518   1.487       .  S
C137        C644   1.478       .  S
C138        C574   1.473       .  S
Zn139       O143   1.958   1_556  S
Zn139       O144   2.001       .  S
Zn139       O148   2.037       .  S
Zn139       O155   2.038       .  S
Zn140       O143   1.986       .  S
Zn140       O145   2.044       .  S
Zn140       O147   2.071       .  S
Zn140       O151   2.064       .  S
Zn141       O143   1.944       .  S
Zn141       O146   1.997       .  S
Zn141       O149   1.994       .  S
Zn141       O152   2.008       .  S
Zn142       O143   1.943   1_556  S
Zn142       O150   2.027       .  S
Zn142       O153   1.992       .  S
Zn142       O154   2.005       .  S
O144        C156   1.273       .  A
O145        C157   1.275       .  A
O146        C158   1.271       .  A
O147        C156   1.281   1_554  A
O148        C158   1.276   1_556  A
O149        C157   1.272       .  A
O150        C159   1.274   1_556  A
O151        C160   1.280   1_554  A
O152        C159   1.270       .  A
O153        C160   1.273       .  A
O154        C161   1.271       .  A
O155        C161   1.276       .  A
C156        C448   1.481       .  S
C157        C482   1.482       .  S
C158        C664   1.475       .  S
C159        C430   1.477       .  S
C160        C556   1.475       .  S
C161        C466   1.478       .  S
Zn162       O166   1.965       .  S
Zn162       O167   2.038       .  S
Zn162       O171   2.040       .  S
Zn162       O178   2.012       .  S
Zn163       O166   1.940       .  S
Zn163       O168   2.004       .  S
Zn163       O170   1.988       .  S
Zn163       O174   1.990       .  S
Zn164       O166   1.958       .  S
Zn164       O169   2.007       .  S
Zn164       O172   2.033       .  S
Zn164       O175   2.008       .  S
Zn165       O166   1.983       .  S
Zn165       O173   2.050       .  S
Zn165       O176   2.051       .  S
Zn165       O177   2.066       .  S
O167        C179   1.274       .  A
O168        C180   1.270       .  A
O169        C181   1.272       .  A
O170        C179   1.271       .  A
O171        C181   1.277       .  A
O172        C180   1.274       .  A
O173        C182   1.278       .  A
O174        C183   1.270       .  A
O175        C182   1.275       .  A
O176        C183   1.277       .  A
O177        C184   1.280       .  A
O178        C184   1.274       .  A
C179        C394   1.479       .  S
C180        C610   1.475       .  S
C181        C464   1.477       .  S
C182        C410   1.483       .  S
C183        C484   1.474       .  S
C184        C520   1.483       .  S
Zn185       O189   1.940       .  S
Zn185       O190   1.992       .  S
Zn185       O194   2.000       .  S
Zn185       O201   1.989       .  S
Zn186       O189   1.976   1_556  S
Zn186       O191   2.038       .  S
Zn186       O193   2.046       .  S
Zn186       O197   2.042       .  S
Zn187       O189   1.954   1_556  S
Zn187       O192   2.032       .  S
Zn187       O195   1.999       .  S
Zn187       O198   1.990       .  S
Zn188       O189   1.974       .  S
Zn188       O196   2.045       .  S
Zn188       O199   2.029       .  S
Zn188       O200   2.039       .  S
O190        C202   1.272       .  A
O191        C203   1.277       .  A
O192        C204   1.273   1_556  A
O193        C202   1.275   1_556  A
O194        C204   1.269       .  A
O195        C203   1.271       .  A
O196        C205   1.275       .  A
O197        C206   1.278   1_556  A
O198        C205   1.272   1_556  A
O199        C206   1.276       .  A
O200        C207   1.276       .  A
O201        C207   1.270       .  A
C202        C878   1.480       .  S
C203        C358   1.474       .  S
C204        C536   1.475       .  S
C205        C338   1.481       .  S
C206        C446   1.484       .  S
C207        C374   1.472       .  S
Zn208       O212   1.972       .  S
Zn208       O213   2.046       .  S
Zn208       O217   2.042       .  S
Zn208       O224   2.021       .  S
Zn209       O212   1.957       .  S
Zn209       O214   2.000       .  S
Zn209       O216   2.014       .  S
Zn209       O220   2.031       .  S
Zn210       O212   1.960       .  S
Zn210       O215   2.029       .  S
Zn210       O218   2.034       .  S
Zn210       O221   2.034       .  S
Zn211       O212   1.955       .  S
Zn211       O219   2.025       .  S
Zn211       O222   2.015       .  S
Zn211       O223   2.011       .  S
O213        C225   1.277       .  A
O214        C226   1.271       .  A
O215        C227   1.276       .  A
O216        C225   1.273       .  A
O217        C227   1.276       .  A
O218        C226   1.277       .  A
O219        C228   1.275       .  A
O220        C229   1.274       .  A
O221        C228   1.275       .  A
O222        C229   1.272       .  A
O223        C230   1.275       .  A
O224        C230   1.274       .  A
C225        C412   1.480       .  S
C226        C356   1.475       .  S
C227        C322   1.487       .  S
C228        C502   1.484       .  S
C229        C772   1.479       .  S
C230        C376   1.476       .  S
Zn231       O235   1.942       .  S
Zn231       O236   1.991       .  S
Zn231       O240   2.012       .  S
Zn231       O247   2.020       .  S
Zn232       O235   1.964   1_554  S
Zn232       O237   2.016       .  S
Zn232       O239   2.044   1_554  S
Zn232       O243   2.032   1_554  S
Zn233       O235   1.960   1_554  S
Zn233       O238   2.032       .  S
Zn233       O241   2.037       .  S
Zn233       O244   2.030       .  S
Zn234       O235   1.941       .  S
Zn234       O242   2.016       .  S
Zn234       O245   2.001       .  S
Zn234       O246   2.014       .  S
O236        C248   1.270       .  A
O237        C249   1.273       .  A
O238        C250   1.276   1_554  A
O239        C248   1.277       .  A
O240        C250   1.273       .  A
O241        C249   1.277       .  A
O242        C251   1.273       .  A
O243        C252   1.275       .  A
O244        C251   1.276   1_554  A
O245        C252   1.274       .  A
O246        C253   1.271       .  A
O247        C253   1.274       .  A
C248        C916   1.472       .  S
C249        C302   1.478       .  S
C250        C428   1.477       .  S
C251        C682   1.480       .  S
C252        C340   1.479       .  S
C253        C286   1.476       .  S
Zn254       O258   1.979       .  S
Zn254       O259   2.049       .  S
Zn254       O263   2.058       .  S
Zn254       O270   2.053       .  S
Zn255       O258   1.961       .  S
Zn255       O260   2.020       .  S
Zn255       O262   2.014       .  S
Zn255       O266   2.042       .  S
Zn256       O258   1.960       .  S
Zn256       O261   2.017       .  S
Zn256       O264   2.032       .  S
Zn256       O267   2.028       .  S
Zn257       O258   1.940       .  S
Zn257       O265   1.992       .  S
Zn257       O268   1.991       .  S
Zn257       O269   1.983       .  S
O259        C271   1.278       .  A
O260        C272   1.273       .  A
O261        C273   1.275       .  A
O262        C271   1.276       .  A
O263        C273   1.279       .  A
O264        C272   1.276       .  A
O265        C274   1.271       .  A
O266        C275   1.274       .  A
O267        C274   1.272       .  A
O268        C275   1.268       .  A
O269        C276   1.269       .  A
O270        C276   1.277       .  A
C271        C808   1.485       .  S
C272        C304   1.479       .  S
C273        C320   1.482       .  S
C274        C626   1.476       .  S
C275        C392   1.472       .  S
C276        C284   1.473       .  S
C277        C285   1.483       .  S
C277        C278   1.401       .  A
C277        C282   1.408       .  A
C278        C279   1.397       .  A
C278        H287   1.084       .  S
C279        C280   1.407       .  A
C279        H288   1.083       .  S
C280        C283   1.484       .  S
C280        C281   1.401       .  A
C281        C282   1.400       .  A
C281        H289   1.083       .  S
C282        H290   1.082       .  S
C283        H291   1.087       .  S
C283        C284   1.342       .  D
C284        H292   1.087       .  S
C285        H293   1.087       .  S
C285        C286   1.344       .  D
C286        H294   1.086       .  S
C295        C303   1.487       .  S
C295        C296   1.403       .  A
C295        C300   1.408       .  A
C296        C297   1.400       .  A
C296        H305   1.083       .  S
C297        C298   1.408       .  A
C297        H306   1.083       .  S
C298        C301   1.487       .  S
C298        C299   1.402       .  A
C299        C300   1.400       .  A
C299        H307   1.083       .  S
C300        H308   1.082       .  S
C301        H309   1.087       .  S
C301        C302   1.345       .  D
C302        H310   1.086       .  S
C303        H311   1.087       .  S
C303        C304   1.346       .  D
C304        H312   1.086       .  S
C313        C321   1.492       .  S
C313        C314   1.404       .  A
C313        C318   1.410       .  A
C314        C315   1.397   1_655  A
C314        H323   1.083       .  S
C315        C316   1.406       .  A
C315        H324   1.083       .  S
C316        C319   1.492       .  S
C316        C317   1.406       .  A
C317        C318   1.407   1_455  A
C317        H325   1.083       .  S
C318        H326   1.082       .  S
C319        H327   1.086       .  S
C319        C320   1.347       .  D
C320        H328   1.087       .  S
C321        H329   1.087       .  S
C321        C322   1.349       .  D
C322        H330   1.085       .  S
C331        C339   1.485       .  S
C331        C332   1.410   1_556  A
C331        C336   1.401       .  A
C332        C333   1.403   1_455  A
C332        H341   1.080       .  S
C333        C334   1.408   1_554  A
C333        H342   1.081       .  S
C334        C337   1.487       .  S
C334        C335   1.403       .  A
C335        C336   1.392   1_655  A
C335        H343   1.083       .  S
C336        H344   1.084       .  S
C337        H345   1.087       .  S
C337        C338   1.349   1_556  D
C338        H346   1.083       .  S
C339        H347   1.088       .  S
C339        C340   1.346       .  D
C340        H348   1.084   1_556  S
C349        C357   1.486       .  S
C349        C350   1.402       .  A
C349        C354   1.407       .  A
C350        C351   1.399       .  A
C350        H359   1.083       .  S
C351        C352   1.411       .  A
C351        H360   1.080       .  S
C352        C355   1.489       .  S
C352        C353   1.403       .  A
C353        C354   1.396       .  A
C353        H361   1.083       .  S
C354        H362   1.082       .  S
C355        H363   1.087       .  S
C355        C356   1.344       .  D
C356        H364   1.083       .  S
C357        H365   1.087       .  S
C357        C358   1.344       .  D
C358        H366   1.085       .  S
C367        C375   1.486       .  S
C367        C368   1.402       .  A
C367        C372   1.410       .  A
C368        C369   1.394       .  A
C368        H377   1.083       .  S
C369        C370   1.406       .  A
C369        H378   1.082       .  S
C370        C373   1.484       .  S
C370        C371   1.402       .  A
C371        C372   1.401       .  A
C371        H379   1.083       .  S
C372        H380   1.080       .  S
C373        H381   1.086       .  S
C373        C374   1.343       .  D
C374        H382   1.086       .  S
C375        H383   1.087       .  S
C375        C376   1.345       .  D
C376        H384   1.083       .  S
C385        C393   1.480       .  S
C385        C386   1.402       .  A
C385        C390   1.407       .  A
C386        C387   1.393       .  A
C386        H395   1.084       .  S
C387        C388   1.405       .  A
C387        H396   1.083       .  S
C388        C391   1.482       .  S
C388        C389   1.404       .  A
C389        C390   1.403       .  A
C389        H397   1.083       .  S
C390        H398   1.082       .  S
C391        H399   1.086       .  S
C391        C392   1.343       .  D
C392        H400   1.087       .  S
C393        H401   1.087       .  S
C393        C394   1.347       .  D
C394        H402   1.086       .  S
C403        C411   1.492       .  S
C403        C404   1.405   1_545  A
C403        C408   1.407       .  A
C404        C405   1.403       .  A
C404        H413   1.083   1_565  S
C405        C406   1.408       .  A
C405        H414   1.081       .  S
C406        C409   1.491       .  S
C406        C407   1.404       .  A
C407        C408   1.398   1_565  A
C407        H415   1.084       .  S
C408        H416   1.082       .  S
C409        H417   1.087       .  S
C409        C410   1.350       .  D
C410        H418   1.084       .  S
C411        H419   1.087       .  S
C411        C412   1.347       .  D
C412        H420   1.085       .  S
C421        C429   1.488       .  S
C421        C422   1.402   1_554  A
C421        C426   1.408       .  A
C422        C423   1.397       .  A
C422        H431   1.084       .  S
C423        C424   1.409   1_556  A
C423        H432   1.080       .  S
C424        C427   1.491       .  S
C424        C425   1.405       .  A
C425        C426   1.400       .  A
C425        H433   1.083       .  S
C426        H434   1.081       .  S
C427        H435   1.087       .  S
C427        C428   1.347   1_554  D
C428        H436   1.084       .  S
C429        H437   1.087   1_554  S
C429        C430   1.345       .  D
C430        H438   1.084       .  S
C439        C447   1.497       .  S
C439        C440   1.405   1_556  A
C439        C444   1.410       .  A
C440        C441   1.402   1_565  A
C440        H449   1.083       .  S
C441        C442   1.409   1_554  A
C441        H450   1.081       .  S
C442        C445   1.494       .  S
C442        C443   1.404       .  A
C443        C444   1.401   1_545  A
C443        H451   1.083       .  S
C444        H452   1.081       .  S
C445        H453   1.087       .  S
C445        C446   1.348   1_556  D
C446        H454   1.085       .  S
C447        H455   1.087   1_556  S
C447        C448   1.347       .  D
C448        H456   1.084       .  S
C457        C465   1.490       .  S
C457        C458   1.402       .  A
C457        C462   1.409       .  A
C458        C459   1.398       .  A
C458        H467   1.083       .  S
C459        C460   1.409       .  A
C459        H468   1.081       .  S
C460        C463   1.491       .  S
C460        C461   1.403       .  A
C461        C462   1.400       .  A
C461        H469   1.083       .  S
C462        H470   1.081       .  S
C463        H471   1.087       .  S
C463        C464   1.346       .  D
C464        H472   1.084       .  S
C465        H473   1.087       .  S
C465        C466   1.345       .  D
C466        H474   1.085       .  S
C475        C483   1.490       .  S
C475        C476   1.405       .  A
C475        C480   1.407       .  A
C476        C477   1.405       .  A
C476        H485   1.083       .  S
C477        C478   1.408       .  A
C477        H486   1.081       .  S
C478        C481   1.485       .  S
C478        C479   1.401       .  A
C479        C480   1.392       .  A
C479        H487   1.084       .  S
C480        H488   1.081       .  S
C481        H489   1.087       .  S
C481        C482   1.347       .  D
C482        H490   1.085       .  S
C483        H491   1.086       .  S
C483        C484   1.346       .  D
C484        H492   1.085       .  S
C493        C501   1.495       .  S
C493        C494   1.406       .  A
C493        C498   1.409       .  A
C494        C495   1.401       .  A
C494        H503   1.083       .  S
C495        C496   1.403       .  A
C495        H504   1.083       .  S
C496        C499   1.495       .  S
C496        C497   1.409       .  A
C497        C498   1.402       .  A
C497        H505   1.082       .  S
C498        H506   1.080       .  S
C499        H507   1.087       .  S
C499        C500   1.346       .  D
C500        H508   1.085       .  S
C501        H509   1.087       .  S
C501        C502   1.350       .  D
C502        H510   1.083       .  S
C511        C519   1.494       .  S
C511        C512   1.406       .  A
C511        C516   1.407       .  A
C512        C513   1.407       .  A
C512        H521   1.083       .  S
C513        C514   1.409       .  A
C513        H522   1.082       .  S
C514        C517   1.492       .  S
C514        C515   1.403       .  A
C515        C516   1.398       .  A
C515        H523   1.083       .  S
C516        H524   1.083       .  S
C517        H525   1.087       .  S
C517        C518   1.349       .  D
C518        H526   1.086       .  S
C519        H527   1.086       .  S
C519        C520   1.347       .  D
C520        H528   1.087       .  S
C529        C537   1.491       .  S
C529        C530   1.404       .  A
C529        C534   1.410   1_554  A
C530        C531   1.397       .  A
C530        H539   1.083       .  S
C531        C532   1.407       .  A
C531        H540   1.082       .  S
C532        C535   1.489       .  S
C532        C533   1.403   1_554  A
C533        C534   1.400       .  A
C533        H541   1.083       .  S
C534        H542   1.080       .  S
C535        H543   1.087   1_554  S
C535        C536   1.345       .  D
C536        H544   1.085       .  S
C537        H545   1.087       .  S
C537        C538   1.347   1_554  D
C538        H546   1.083       .  S
C547        C555   1.491       .  S
C547        C548   1.405       .  A
C547        C552   1.407       .  A
C548        C549   1.406       .  A
C548        H557   1.083       .  S
C549        C550   1.409       .  A
C549        H558   1.081       .  S
C550        C553   1.487       .  S
C550        C551   1.401       .  A
C551        C552   1.393       .  A
C551        H559   1.084       .  S
C552        H560   1.082       .  S
C553        H561   1.087       .  S
C553        C554   1.347       .  D
C554        H562   1.085       .  S
C555        H563   1.086       .  S
C555        C556   1.346   1_554  D
C556        H564   1.086       .  S
C565        C573   1.484       .  S
C565        C566   1.403       .  A
C565        C570   1.407       .  A
C566        C567   1.401       .  A
C566        H575   1.083       .  S
C567        C568   1.408       .  A
C567        H576   1.082       .  S
C568        C571   1.482       .  S
C568        C569   1.401       .  A
C569        C570   1.395       .  A
C569        H577   1.084       .  S
C570        H578   1.082       .  S
C571        H579   1.087       .  S
C571        C572   1.344       .  D
C572        H580   1.086       .  S
C573        H581   1.087       .  S
C573        C574   1.343       .  D
C574        H582   1.087       .  S
C583        C591   1.488       .  S
C583        C584   1.404       .  A
C583        C588   1.407       .  A
C584        C585   1.402       .  A
C584        H593   1.084       .  S
C585        C586   1.409       .  A
C585        H594   1.081       .  S
C586        C589   1.487       .  S
C586        C587   1.402       .  A
C587        C588   1.396       .  A
C587        H595   1.084       .  S
C588        H596   1.082       .  S
C589        H597   1.087       .  S
C589        C590   1.346       .  D
C590        H598   1.085       .  S
C591        H599   1.087       .  S
C591        C592   1.345       .  D
C592        H600   1.086       .  S
C601        C609   1.484       .  S
C601        C602   1.404       .  A
C601        C606   1.405       .  A
C602        C603   1.403       .  A
C602        H611   1.083       .  S
C603        C604   1.408       .  A
C603        H612   1.082       .  S
C604        C607   1.484       .  S
C604        C605   1.402       .  A
C605        C606   1.394       .  A
C605        H613   1.084       .  S
C606        H614   1.083       .  S
C607        H615   1.087       .  S
C607        C608   1.346       .  D
C608        H616   1.085       .  S
C609        H617   1.086       .  S
C609        C610   1.344       .  D
C610        H618   1.087       .  S
C619        C627   1.483       .  S
C619        C620   1.403       .  A
C619        C624   1.406       .  A
C620        C621   1.399       .  A
C620        H629   1.083       .  S
C621        C622   1.408       .  A
C621        H630   1.081       .  S
C622        C625   1.483       .  S
C622        C623   1.403       .  A
C623        C624   1.396       .  A
C623        H631   1.083       .  S
C624        H632   1.082       .  S
C625        H633   1.087       .  S
C625        C626   1.346       .  D
C626        H634   1.084       .  S
C627        H635   1.087       .  S
C627        C628   1.346       .  D
C628        H636   1.085       .  S
C637        C645   1.490       .  S
C637        C638   1.403       .  A
C637        C642   1.409       .  A
C638        C639   1.400   1_455  A
C638        H647   1.083       .  S
C639        C640   1.408       .  A
C639        H648   1.082       .  S
C640        C643   1.487       .  S
C640        C641   1.402       .  A
C641        C642   1.398   1_655  A
C641        H649   1.083       .  S
C642        H650   1.081       .  S
C643        H651   1.087       .  S
C643        C644   1.345       .  D
C644        H652   1.085       .  S
C645        H653   1.087       .  S
C645        C646   1.345       .  D
C646        H654   1.085       .  S
C655        C663   1.491       .  S
C655        C656   1.404   1_554  A
C655        C660   1.409       .  A
C656        C657   1.400       .  A
C656        H665   1.083       .  S
C657        C658   1.408   1_556  A
C657        H666   1.081       .  S
C658        C661   1.486       .  S
C658        C659   1.402       .  A
C659        C660   1.397       .  A
C659        H667   1.084       .  S
C660        H668   1.080       .  S
C661        H669   1.087       .  S
C661        C662   1.345   1_554  D
C662        H670   1.085       .  S
C663        H671   1.087   1_554  S
C663        C664   1.345       .  D
C664        H672   1.084       .  S
C673        C681   1.491       .  S
C673        C674   1.402       .  A
C673        C678   1.410   1_554  A
C674        C675   1.396       .  A
C674        H683   1.083       .  S
C675        C676   1.409       .  A
C675        H684   1.081       .  S
C676        C679   1.492   1_554  S
C676        C677   1.404   1_554  A
C677        C678   1.403       .  A
C677        H685   1.083       .  S
C678        H686   1.080       .  S
C679        H687   1.087       .  S
C679        C680   1.346   1_556  D
C680        H688   1.085       .  S
C681        H689   1.087       .  S
C681        C682   1.346   1_554  D
C682        H690   1.083       .  S
C691        C699   1.488       .  S
C691        C692   1.402       .  A
C691        C696   1.408   1_556  A
C692        C693   1.397       .  A
C692        H701   1.084       .  S
C693        C694   1.409   1_456  A
C693        H702   1.081   1_455  S
C694        C697   1.493       .  S
C694        C695   1.405   1_655  A
C695        C696   1.402       .  A
C695        H703   1.083   1_455  S
C696        H704   1.081       .  S
C697        H705   1.087       .  S
C697        C698   1.347   1_554  D
C698        H706   1.084       .  S
C699        H707   1.087       .  S
C699        C700   1.345   1_556  D
C700        H708   1.085       .  S
C709        C717   1.488       .  S
C709        C710   1.403       .  A
C709        C714   1.409       .  A
C710        C711   1.397       .  A
C710        H719   1.083       .  S
C711        C712   1.407       .  A
C711        H720   1.082       .  S
C712        C715   1.489       .  S
C712        C713   1.404       .  A
C713        C714   1.403       .  A
C713        H721   1.083       .  S
C714        H722   1.082       .  S
C715        H723   1.087       .  S
C715        C716   1.345       .  D
C716        H724   1.086       .  S
C717        H725   1.087       .  S
C717        C718   1.347       .  D
C718        H726   1.085       .  S
C727        C735   1.488       .  S
C727        C728   1.404       .  A
C727        C732   1.407       .  A
C728        C729   1.401       .  A
C728        H737   1.083       .  S
C729        C730   1.408       .  A
C729        H738   1.082       .  S
C730        C733   1.488       .  S
C730        C731   1.404       .  A
C731        C732   1.398       .  A
C731        H739   1.083       .  S
C732        H740   1.082       .  S
C733        H741   1.087       .  S
C733        C734   1.348       .  D
C734        H742   1.085       .  S
C735        H743   1.087       .  S
C735        C736   1.346       .  D
C736        H744   1.086       .  S
C745        C753   1.484       .  S
C745        C746   1.401       .  A
C745        C750   1.409       .  A
C746        C747   1.394       .  A
C746        H755   1.083       .  S
C747        C748   1.406       .  A
C747        H756   1.083       .  S
C748        C751   1.484       .  S
C748        C749   1.403       .  A
C749        C750   1.402       .  A
C749        H757   1.083       .  S
C750        H758   1.082       .  S
C751        H759   1.086       .  S
C751        C752   1.344       .  D
C752        H760   1.087       .  S
C753        H761   1.087       .  S
C753        C754   1.344       .  D
C754        H762   1.086       .  S
C763        C771   1.493       .  S
C763        C764   1.406       .  A
C763        C768   1.408       .  A
C764        C765   1.403       .  A
C764        H773   1.083       .  S
C765        C766   1.408       .  A
C765        H774   1.081       .  S
C766        C769   1.490       .  S
C766        C767   1.403       .  A
C767        C768   1.396       .  A
C767        H775   1.084       .  S
C768        H776   1.080       .  S
C769        H777   1.087       .  S
C769        C770   1.349       .  D
C770        H778   1.084       .  S
C771        H779   1.087       .  S
C771        C772   1.348       .  D
C772        H780   1.084       .  S
C781        C789   1.489       .  S
C781        C782   1.404       .  A
C781        C786   1.408       .  A
C782        C783   1.400   1_565  A
C782        H791   1.083       .  S
C783        C784   1.407       .  A
C783        H792   1.082       .  S
C784        C787   1.490       .  S
C784        C785   1.405       .  A
C785        C786   1.402   1_545  A
C785        H793   1.083       .  S
C786        H794   1.082       .  S
C787        H795   1.087       .  S
C787        C788   1.348       .  D
C788        H796   1.086       .  S
C789        H797   1.087       .  S
C789        C790   1.348       .  D
C790        H798   1.085       .  S
C799        C807   1.489       .  S
C799        C800   1.403       .  A
C799        C804   1.410       .  A
C800        C801   1.395       .  A
C800        H809   1.084       .  S
C801        C802   1.405       .  A
C801        H810   1.083       .  S
C802        C805   1.489       .  S
C802        C803   1.405       .  A
C803        C804   1.406       .  A
C803        H811   1.083       .  S
C804        H812   1.081       .  S
C805        H813   1.086       .  S
C805        C806   1.345       .  D
C806        H814   1.087       .  S
C807        H815   1.087       .  S
C807        C808   1.349       .  D
C808        H816   1.085       .  S
C817        C825   1.486       .  S
C817        C818   1.402       .  A
C817        C822   1.408       .  A
C818        C819   1.399       .  A
C818        H827   1.083       .  S
C819        C820   1.409       .  A
C819        H828   1.082       .  S
C820        C823   1.486       .  S
C820        C821   1.402       .  A
C821        C822   1.399       .  A
C821        H829   1.084       .  S
C822        H830   1.082       .  S
C823        H831   1.087       .  S
C823        C824   1.344       .  D
C824        H832   1.086       .  S
C825        H833   1.087       .  S
C825        C826   1.344       .  D
C826        H834   1.086       .  S
C835        C843   1.487       .  S
C835        C836   1.403       .  A
C835        C840   1.408       .  A
C836        C837   1.398       .  A
C836        H845   1.083       .  S
C837        C838   1.407       .  A
C837        H846   1.082       .  S
C838        C841   1.487       .  S
C838        C839   1.403       .  A
C839        C840   1.401       .  A
C839        H847   1.083       .  S
C840        H848   1.082       .  S
C841        H849   1.087       .  S
C841        C842   1.345       .  D
C842        H850   1.086       .  S
C843        H851   1.087       .  S
C843        C844   1.347       .  D
C844        H852   1.085       .  S
C853        C861   1.487       .  S
C853        C854   1.403       .  A
C853        C858   1.407       .  A
C854        C855   1.397       .  A
C854        H863   1.083       .  S
C855        C856   1.406       .  A
C855        H864   1.083       .  S
C856        C859   1.490       .  S
C856        C857   1.406       .  A
C857        C858   1.405       .  A
C857        H865   1.083       .  S
C858        H866   1.083       .  S
C859        H867   1.086       .  S
C859        C860   1.348   1_556  D
C860        H868   1.086       .  S
C861        H869   1.087       .  S
C861        C862   1.348       .  D
C862        H870   1.086   1_556  S
C871        C879   1.485       .  S
C871        C872   1.405       .  A
C871        C876   1.406       .  A
C872        C873   1.403       .  A
C872        H881   1.083       .  S
C873        C874   1.406       .  A
C873        H882   1.082       .  S
C874        C877   1.481       .  S
C874        C875   1.402       .  A
C875        C876   1.395       .  A
C875        H883   1.084       .  S
C876        H884   1.082       .  S
C877        H885   1.088       .  S
C877        C878   1.347       .  D
C878        H886   1.086   1_554  S
C879        H887   1.087       .  S
C879        C880   1.345   1_554  D
C880        H888   1.086       .  S
C889        C897   1.483       .  S
C889        C890   1.403       .  A
C889        C894   1.406       .  A
C890        C891   1.402       .  A
C890        H899   1.083       .  S
C891        C892   1.409   1_545  A
C891        H900   1.082   1_545  S
C892        C895   1.485       .  S
C892        C893   1.402   1_565  A
C893        C894   1.395       .  A
C893        H901   1.083       .  S
C894        H902   1.083       .  S
C895        H903   1.087       .  S
C895        C896   1.346       .  D
C896        H904   1.086   1_556  S
C897        H905   1.086       .  S
C897        C898   1.344   1_556  D
C898        H906   1.087       .  S
C907        C915   1.484   1_554  S
C907        C908   1.403       .  A
C907        C912   1.406       .  A
C908        C909   1.404       .  A
C908        H917   1.083       .  S
C909        C910   1.410       .  A
C909        H918   1.082       .  S
C910        C913   1.484       .  S
C910        C911   1.401       .  A
C911        C912   1.392       .  A
C911        H919   1.084       .  S
C912        H920   1.083       .  S
C913        H921   1.087       .  S
C913        C914   1.345   1_554  D
C914        H922   1.085       .  S
C915        H923   1.086   1_556  S
C915        C916   1.343       .  D
C916        H924   1.087       .  S
