geometry optimzed in LAMMPS
_audit_creation_date              2020-12-01 
_audit_creation_method            'lammps2cif' 
_symmetry_space_group_name_H-M    'P1' 
_symmetry_Int_Tables_number       1 
_symmetry_cell_setting            triclinic 
loop_ 
_symmetry_equiv_pos_as_xyz 
  x,y,z 
_cell_length_a                    39.5894258 
_cell_length_b                    39.54223219600953 
_cell_length_c                    39.47367945034268 
_cell_angle_alpha                 89.92442298481136 
_cell_angle_beta                  89.93125666778909 
_cell_angle_gamma                 90.13537687497094 
loop_ 
_atom_site_label 
_atom_site_type_symbol 
_atom_site_fract_x 
_atom_site_fract_y 
_atom_site_fract_z 
_atom_site_charge 
C1          C  0.18193281  0.81582058  0.52945500     0.04300
C2          C  0.15656290  0.84059411  0.52849375    -0.11800
C3          C  0.14491789  0.85294671  0.49701238     0.01800
C4          C  0.15892418  0.84010956  0.46673010    -0.10400
C5          C  0.18426405  0.81530318  0.46812407     0.04300
C6          C  0.19511051  0.80318749  0.49936858    -0.09800
H7          H  0.14648057  0.85068631  0.55190716     0.09900
H8          H  0.15064805  0.84981426  0.44245030     0.07400
H9          H  0.21492482  0.78426452  0.50031107     0.07300
C10         C  0.93121338  0.06697172  0.52946191     0.04300
C11         C  0.95728319  0.04295007  0.52856192    -0.11800
C12         C  0.97068663  0.03231079  0.49714822     0.01800
C13         C  0.95844588  0.04712368  0.46687927    -0.10400
C14         C  0.93305639  0.07201563  0.46832338     0.04300
C15         C  0.91932043  0.08093684  0.49947635    -0.09800
H16         H  0.96683196  0.03236545  0.55198740     0.09900
H17         H  0.96887446  0.03968033  0.44263712     0.07400
H18         H  0.89953959  0.09989831  0.50049679     0.07300
C19         C  0.93585589  0.81307146  0.52564567     0.04300
C20         C  0.92172082  0.80285094  0.49505840    -0.11800
C21         C  0.93074613  0.81833436  0.46469210     0.01800
C22         C  0.95443019  0.84482376  0.46467517    -0.10400
C23         C  0.96909023  0.85549615  0.49544759     0.04300
C24         C  0.95947931  0.83965215  0.52603293    -0.09800
H25         H  0.90321156  0.78254266  0.49486287     0.09900
H26         H  0.96191679  0.85653096  0.44099379     0.07400
H27         H  0.97065609  0.84761153  0.54976892     0.07300
C28         C  0.53296184  0.81490575  0.13123084     0.04300
C29         C  0.53277858  0.83766171  0.10379315    -0.11800
C30         C  0.56358190  0.84884040  0.08941889     0.01800
C31         C  0.59443597  0.83635708  0.10243333    -0.10400
C32         C  0.59424832  0.81368540  0.12996843     0.04300
C33         C  0.56359752  0.80323965  0.14374434    -0.09800
H34         H  0.50898335  0.84683597  0.09390488     0.09900
H35         H  0.61821468  0.84458936  0.09157399     0.07400
H36         H  0.56357482  0.78483288  0.16418861     0.07300
C37         C  0.93203865  0.41027079  0.12422186     0.04300
C38         C  0.95772320  0.40926525  0.09960336    -0.11800
C39         C  0.97259197  0.43967285  0.08800262     0.01800
C40         C  0.96150661  0.47084523  0.10136817    -0.10400
C41         C  0.93555343  0.47150170  0.12566631     0.04300
C42         C  0.92134602  0.44125210  0.13693771    -0.09800
H43         H  0.96590378  0.38521405  0.08941342     0.09900
H44         H  0.97249649  0.49433084  0.09240291     0.07400
H45         H  0.90143484  0.44183425  0.15586804     0.07300
C46         C  0.93455290  0.40853781  0.87335793     0.04300
C47         C  0.95914272  0.40938722  0.89892800    -0.11800
C48         C  0.97184100  0.44070267  0.91042070     0.01800
C49         C  0.95923227  0.47102079  0.89621329    -0.10400
C50         C  0.93487574  0.46974304  0.87021997     0.04300
C51         C  0.92302223  0.43853446  0.85908998    -0.09800
H52         H  0.96816400  0.38599209  0.90995606     0.09900
H53         H  0.96845289  0.49523438  0.90511956     0.07400
H54         H  0.90381691  0.43756885  0.83949188     0.07300
C55         C  0.58917642  0.06501780  0.87439541     0.04300
C56         C  0.55844048  0.07710094  0.86234947    -0.11800
C57         C  0.52800224  0.06311333  0.87313039     0.01800
C58         C  0.52794782  0.03663155  0.89685562    -0.10400
C59         C  0.55877984  0.02425934  0.90969301     0.04300
C60         C  0.58949342  0.03834327  0.89803891    -0.09800
H61         H  0.55818412  0.09727579  0.84366456     0.09900
H62         H  0.50422271  0.02593892  0.90546766     0.07400
H63         H  0.61331918  0.02892283  0.90761718     0.07300
C64         C  0.18949989  0.40874010  0.87583348     0.04300
C65         C  0.19824058  0.43850416  0.85923593    -0.11800
C66         C  0.18297711  0.46902492  0.86744879     0.01800
C67         C  0.15838548  0.47006705  0.89316532    -0.10400
C68         C  0.14896766  0.44004613  0.91020382     0.04300
C69         C  0.16470312  0.40923565  0.90136913    -0.09800
H70         H  0.21741353  0.43790027  0.83954097     0.09900
H71         H  0.14668273  0.49388537  0.89984069     0.07400
H72         H  0.15756892  0.38598982  0.91407054     0.07300
C73         C  0.52796316  0.80847732  0.87270647     0.04300
C74         C  0.55897487  0.79716078  0.86077828    -0.11800
C75         C  0.58908391  0.80985233  0.87369569     0.01800
C76         C  0.58839411  0.83472616  0.89906956    -0.10400
C77         C  0.55715819  0.84655879  0.91160594     0.04300
C78         C  0.52679553  0.83320959  0.89829897    -0.09800
H79         H  0.55969217  0.77808102  0.84102610     0.09900
H80         H  0.61185166  0.84484907  0.90893010     0.07400
H81         H  0.50265538  0.84205743  0.90765616     0.07300
C82         C  0.08851723  0.31675043  0.37000677     0.04300
C83         C  0.08967838  0.34070496  0.39616744    -0.11800
C84         C  0.05942290  0.35401403  0.40939203     0.01800
C85         C  0.02810817  0.34277815  0.39644578    -0.10400
C86         C  0.02736433  0.31874699  0.37024241     0.04300
C87         C  0.05751243  0.30580976  0.35762546    -0.09800
H88         H  0.11382854  0.34940449  0.40570657     0.09900
H89         H  0.00472604  0.35311646  0.40619759     0.07400
H90         H  0.05685172  0.28714009  0.33748668     0.07300
O91         O  0.28262588  0.21834533  0.20209905    -0.87200
C92         C  0.38171984  0.21523898  0.23300871     0.88900
Mg93       Mg  0.24266082  0.23610803  0.23420023     1.58100
O94         O  0.33945488  0.13667540  0.22453522    -0.86900
O95         O  0.29833881  0.17742613  0.16856617    -0.74200
C96         C  0.25874694  0.14635709  0.36999639     0.93900
O97         O  0.31897982  0.27004763  0.25421005    -0.74000
O98         O  0.24619097  0.17422147  0.36046860    -0.81600
Mg99       Mg  0.32515729  0.25179290  0.19895906     1.58000
C100        C  0.35577536  0.07139263  0.30817625     0.93800
O101        O  0.33334142  0.23974859  0.14318801    -0.79800
H102        H  0.31636953  0.10050566  0.19765561    -0.05200
C103        C  0.34318594  0.17766363  0.31981874     0.88800
O104        O  0.22691429  0.18117494  0.24633099    -0.74300
O105        O  0.35660626  0.21000091  0.21527988    -0.87100
O106        O  0.36644062  0.08266286  0.27995099    -0.79900
C107        C  0.42399566  0.12692828  0.19997683     0.93900
C108        C  0.36115078  0.22978976  0.13077452     0.93800
Mg109      Mg  0.29404672  0.12359829  0.30157122     1.58000
O110        O  0.28639924  0.13624500  0.35734409    -0.79800
O111        O  0.29959871  0.10502466  0.24618144    -0.74100
O112        O  0.41026843  0.15303761  0.18720279    -0.79900
O113        O  0.29067777  0.29327822  0.17978783    -0.81600
O114        O  0.20860249  0.22156580  0.31299344    -0.79900
C115        C  0.31860331  0.11357477  0.22158995     0.88200
O116        O  0.26237671  0.16481624  0.28510213    -0.87100
O117        O  0.33659039  0.15685442  0.29745448    -0.87200
O118        O  0.32093106  0.19820578  0.33055484    -0.74200
Mg119      Mg  0.35436116  0.16718550  0.18168838     1.58000
O120        O  0.41489350  0.11612773  0.22888495    -0.81600
H121        H  0.25113910  0.19760987  0.16835055    -0.05300
O122        O  0.27872130  0.23840203  0.27504066    -0.86900
H123        H  0.30111515  0.27470767  0.30229264    -0.05200
H124        H  0.22553777  0.13457757  0.26811538    -0.05300
C125        C  0.29938465  0.26161266  0.27832850     0.88200
C126        C  0.27615718  0.19800835  0.17929153     0.88800
C127        C  0.23779427  0.15900912  0.26684505     0.88800
H128        H  0.36834425  0.17847358  0.33041158    -0.05300
O129        O  0.39291195  0.19254966  0.25281700    -0.74300
Mg130      Mg  0.26454924  0.20801547  0.31808973     1.58000
H131        H  0.39432989  0.23948807  0.23170381    -0.05300
C132        C  0.26296202  0.30427236  0.19161320     0.93800
O133        O  0.20266639  0.25620662  0.26942358    -0.81600
C134        C  0.19361802  0.24605323  0.29857479     0.93900
O135        O  0.37335762  0.20161181  0.13993309    -0.81600
Mg136      Mg  0.37594595  0.13781389  0.26485149     1.58200
O137        O  0.25005160  0.29140131  0.21820199    -0.79900
O138        O  0.32886530  0.08295626  0.32112758    -0.81600
C139        C  0.43257987  0.97037911  0.37935283     0.04300
C140        C  0.45809219  0.97177176  0.40405238    -0.11800
C141        C  0.47300286  0.94158947  0.41588366     0.01800
C142        C  0.46230248  0.91026742  0.40251934    -0.10400
C143        C  0.43677293  0.90933021  0.37788543     0.04300
C144        C  0.42207638  0.93926573  0.36676452    -0.09800
H145        H  0.46629555  0.99597868  0.41392733     0.09900
H146        H  0.47372934  0.88695869  0.41122422     0.07400
H147        H  0.40243452  0.93836021  0.34760522     0.07300
O148        O  0.26110398  0.66357929  0.22320077    -0.87200
C149        C  0.29632854  0.66113577  0.32072464     0.88900
Mg150      Mg  0.29232235  0.64833773  0.18141050     1.58100
O151        O  0.28634080  0.74125275  0.28288220    -0.86900
O152        O  0.22809747  0.70340918  0.24222344    -0.74200
C153        C  0.43014385  0.73645405  0.19791179     0.93900
O154        O  0.31505382  0.61055738  0.25492023    -0.74000
O155        O  0.41937641  0.70958123  0.18409220    -0.81600
Mg156      Mg  0.26011280  0.62766714  0.26416335     1.58000
C157        C  0.36951067  0.80705712  0.30011845     0.93800
O158        O  0.20440241  0.63748157  0.27575565    -0.79800
H159        H  0.25854476  0.77840049  0.26274627    -0.05200
C160        C  0.38192185  0.70153865  0.28167923     0.88800
O161        O  0.30396205  0.70409574  0.16818523    -0.74300
O162        O  0.27726971  0.66760077  0.29685936    -0.87100
O163        O  0.34182486  0.79475584  0.31090733    -0.79900
C164        C  0.26396152  0.74646304  0.36777258     0.93900
C165        C  0.19182560  0.64785705  0.30345941     0.93800
Mg166      Mg  0.36176094  0.75807379  0.23596224     1.58000
O167        O  0.41742607  0.74685815  0.22553171    -0.79800
O168        O  0.30651658  0.77556636  0.24441419    -0.74100
O169        O  0.25285612  0.71943908  0.35448712    -0.79900
O170        O  0.24071109  0.58744466  0.22874497    -0.81600
O171        O  0.36935912  0.66498938  0.14491123    -0.79900
C172        C  0.28259079  0.76552417  0.26351903     0.88200
O173        O  0.34446589  0.71867798  0.20259677    -0.87100
O174        O  0.35942213  0.72258618  0.27691300    -0.87200
O175        O  0.39168579  0.68206257  0.25801187    -0.74200
Mg176      Mg  0.24387996  0.71012317  0.29819093     1.58000
O177        O  0.29224206  0.75855009  0.35858125    -0.81600
H178        H  0.22616052  0.68554160  0.19397555    -0.05300
O179        O  0.33419483  0.64477034  0.21595527    -0.86900
H180        H  0.36236679  0.60744074  0.23512045    -0.05200
H181        H  0.32577938  0.75069261  0.16813658    -0.05300
C182        C  0.33834511  0.62038604  0.23503715     0.88200
C183        C  0.23800686  0.68400343  0.21859043     0.88800
C184        C  0.32505608  0.72567130  0.17919455     0.88800
H185        H  0.39341983  0.69955185  0.30642869    -0.05300
O186        O  0.31659040  0.68329632  0.33219991    -0.74300
Mg187      Mg  0.37698909  0.67535526  0.20157088     1.58000
H188        H  0.29583932  0.63619537  0.33197011    -0.05300
C189        C  0.25217238  0.57785816  0.20032445     0.93800
O190        O  0.32648536  0.62963907  0.13984055    -0.81600
C191        C  0.35547396  0.63977535  0.13055925     0.93900
O192        O  0.20223365  0.67518937  0.31667344    -0.81600
Mg193      Mg  0.32763595  0.73901678  0.31806001     1.58200
O194        O  0.27717099  0.59279600  0.18663814    -0.79900
O195        O  0.38197485  0.79708886  0.27228962    -0.81600
O196        O  0.75602256  0.21869047  0.21897919    -0.87200
C197        C  0.79372016  0.12169921  0.22196096     0.88900
Mg198      Mg  0.78732385  0.26054526  0.20200937     1.58100
O199        O  0.77910089  0.16170507  0.30054141    -0.86900
O200        O  0.72231327  0.19987454  0.25860004    -0.74200
C201        C  0.92071672  0.25183682  0.29766811     0.93900
O202        O  0.81258787  0.18624273  0.16946712    -0.74000
O203        O  0.91061974  0.26355695  0.26952431    -0.81600
Mg204      Mg  0.75717710  0.17606640  0.18502603     1.58000
C205        C  0.85994346  0.14960510  0.36929362     0.93800
O206        O  0.70158474  0.16244543  0.19292850    -0.79800
H207        H  0.74872340  0.18208689  0.33551210    -0.05200
C208        C  0.87613865  0.16550143  0.26449723     0.88800
O209        O  0.79593524  0.27752155  0.25753000    -0.74300
O210        O  0.77375427  0.14511385  0.22684781    -0.87100
O211        O  0.83308704  0.13738831  0.35668434    -0.79900
C212        C  0.76043098  0.07565981  0.30796821     0.93900
C213        C  0.68961014  0.13499887  0.20466748     0.93800
Mg214      Mg  0.85140185  0.21262947  0.31832330     1.58000
O215        O  0.90713304  0.22566061  0.31051866    -0.79800
O216        O  0.79583325  0.20262159  0.33359284    -0.74100
O217        O  0.74806974  0.08879532  0.28133710    -0.79900
O218        O  0.73735547  0.21009771  0.14378182    -0.81600
O219        O  0.86063276  0.29953502  0.22205564    -0.79900
C220        C  0.77336696  0.18187714  0.32368111     0.88200
O221        O  0.83525821  0.24388628  0.27647515    -0.87100
O222        O  0.85240063  0.17037379  0.28419093    -0.87200
O223        O  0.88618925  0.18854529  0.24437843    -0.74200
Mg224      Mg  0.73881318  0.14449704  0.26845986     1.58000
O225        O  0.78801828  0.08649546  0.32015346    -0.81600
H226        H  0.71972799  0.24749314  0.23920160    -0.05300
O227        O  0.82940458  0.22668720  0.20297497    -0.86900
H228        H  0.85969045  0.20679964  0.16765246    -0.05200
H229        H  0.81487270  0.28008564  0.30536046    -0.05300
C230        C  0.83509535  0.20682436  0.17958043     0.88200
C231        C  0.73225192  0.22323110  0.23873467     0.88800
C232        C  0.81553306  0.26760540  0.28101608     0.88800
H233        H  0.88843231  0.14112144  0.26420244    -0.05300
O234        O  0.81355439  0.11183118  0.24521738    -0.74300
Mg235      Mg  0.87005947  0.24382041  0.23467438     1.58000
H236        H  0.79446267  0.10953131  0.19746272    -0.05300
C237        C  0.74912131  0.23809923  0.13340940     0.93800
O238        O  0.82262974  0.30134328  0.18149476    -0.81600
C239        C  0.85043765  0.31142748  0.19395883     0.93900
O240        O  0.69935674  0.12372407  0.23307796    -0.81600
Mg241      Mg  0.82180569  0.12827501  0.30078289     1.58200
O242        O  0.77586044  0.25034698  0.14629074    -0.79900
O243        O  0.87111171  0.17808040  0.35949198    -0.81600
C244        C  0.68662311  0.97016627  0.37663586     0.04300
C245        C  0.66404600  0.97116295  0.40410117    -0.11800
C246        C  0.64922912  0.94098408  0.41615735     0.01800
C247        C  0.65790261  0.90990344  0.40097553    -0.10400
C248        C  0.68055255  0.90927826  0.37354408     0.04300
C249        C  0.69462415  0.93933780  0.36172359    -0.09800
H250        H  0.65733257  0.99519874  0.41536462     0.09900
H251        H  0.64667262  0.88657082  0.41004254     0.07400
H252        H  0.71231012  0.93871899  0.34069197     0.07300
O253        O  0.78435632  0.63842340  0.21943709    -0.87200
C254        C  0.87879238  0.68256120  0.21976459     0.88900
Mg255      Mg  0.74064881  0.66736481  0.20419173     1.58100
O256        O  0.84115163  0.66457850  0.29839936    -0.86900
O257        O  0.80633428  0.60495876  0.25743352    -0.74200
C258        C  0.74380323  0.80092884  0.30040267     0.93900
O259        O  0.81198393  0.69740551  0.16910712    -0.74000
O260        O  0.73161832  0.78989837  0.27283007    -0.81600
Mg261      Mg  0.82556195  0.64251970  0.18403966     1.58000
C262        C  0.85123575  0.74565529  0.36784098     0.93800
O263        O  0.84163196  0.58764202  0.19189407    -0.79800
H264        H  0.82438305  0.63265133  0.33406713    -0.05200
C265        C  0.83162187  0.76241802  0.26483136     0.88800
O266        O  0.72515872  0.67430600  0.26048542    -0.74300
O267        O  0.85677495  0.66091839  0.22480976    -0.87100
O268        O  0.86210337  0.71812531  0.35551877    -0.79900
C269        C  0.92639810  0.64922859  0.30548612     0.93900
C270        C  0.86984534  0.57623210  0.20198527     0.93800
Mg271      Mg  0.78782318  0.73389343  0.31972359     1.58000
O272        O  0.77073514  0.78854444  0.31265297    -0.79800
O273        O  0.80172702  0.67879641  0.33423898    -0.74100
O274        O  0.91544813  0.63984894  0.27675621    -0.79900
O275        O  0.79146191  0.62087234  0.14363318    -0.81600
O276        O  0.69903527  0.73520607  0.22791977    -0.79900
C277        C  0.82267753  0.65742709  0.32259035     0.88200
O278        O  0.75685508  0.71559363  0.27898706    -0.87100
O279        O  0.82872571  0.73789718  0.28403147    -0.87200
O280        O  0.80748729  0.77131360  0.24558169    -0.74200
Mg281      Mg  0.86064210  0.62548617  0.26569766     1.58000
O282        O  0.91514273  0.67611678  0.31878041    -0.81600
H283        H  0.75841239  0.59977618  0.23953458    -0.05300
O284        O  0.77256817  0.71127220  0.20504586    -0.86900
H285        H  0.78880597  0.74326801  0.16919243    -0.05200
H286        H  0.72316522  0.69214781  0.30878153    -0.05300
C287        C  0.79080944  0.71853699  0.18071557     0.88200
C288        C  0.78181585  0.61389418  0.23866858     0.88800
C289        C  0.73468771  0.69411365  0.28400958     0.88800
H290        H  0.85508646  0.77644677  0.26429051    -0.05300
O291        O  0.88821083  0.70245310  0.24326888    -0.74300
Mg292      Mg  0.75339254  0.75058865  0.23758563     1.58000
H293        H  0.89024788  0.68462338  0.19496940    -0.05300
C294        C  0.76256668  0.63119550  0.13450509     0.93800
O295        O  0.69836858  0.70085098  0.18452926    -0.81600
C296        C  0.68841855  0.72785399  0.19856244     0.93900
O297        O  0.88296731  0.58709661  0.22920823    -0.81600
Mg298      Mg  0.87236637  0.70893611  0.29946917     1.58200
O299        O  0.74933745  0.65703245  0.14812281    -0.79900
O300        O  0.82231967  0.75640483  0.35942100    -0.81600
C301        C  0.08907826  0.56926059  0.37106404     0.04300
C302        C  0.05827464  0.58213641  0.36005741    -0.11800
C303        C  0.02787234  0.57048954  0.37350377     0.01800
C304        C  0.02804047  0.54505805  0.39843299    -0.10400
C305        C  0.05896565  0.53136481  0.40976278     0.04300
C306        C  0.08960829  0.54382195  0.39607380    -0.09800
H307        H  0.05796412  0.60192847  0.34096633     0.09900
H308        H  0.00439408  0.53593267  0.40887130     0.07400
H309        H  0.11351719  0.53383068  0.40481439     0.07300
C310        C  0.43302204  0.31143664  0.03424932     0.04300
C311        C  0.45758983  0.33723401  0.03466955    -0.11800
C312        C  0.47134800  0.34930999  0.00384373     0.01800
C313        C  0.46032576  0.33517134  0.97294835    -0.10400
C314        C  0.43611197  0.30916808  0.97301691     0.04300
C315        C  0.42256788  0.29787049  0.00351531    -0.09800
H316        H  0.46616117  0.34752898  0.05858460     0.09900
H317        H  0.47082165  0.34405404  0.94918169     0.07400
H318        H  0.40380508  0.27778736  0.00335878     0.07300
O319        O  0.28085133  0.23932940  0.72406253    -0.87200
C320        C  0.28134526  0.20372298  0.82204438     0.88900
Mg321      Mg  0.26385535  0.20774356  0.68251675     1.58100
O322        O  0.36036417  0.21541311  0.78225336    -0.86900
O323        O  0.32087781  0.27264534  0.74245351    -0.74200
C324        C  0.35501209  0.07209060  0.69578029     0.93900
O325        O  0.22938033  0.18501576  0.75731466    -0.74000
O326        O  0.32724091  0.08223478  0.68348023    -0.81600
Mg327      Mg  0.24638662  0.24028934  0.76624787     1.58000
C328        C  0.42701644  0.13347204  0.79651205     0.93800
O329        O  0.25638802  0.29616825  0.77846086    -0.79800
H330        H  0.39624815  0.24444116  0.76133200    -0.05200
C331        C  0.32195503  0.11917017  0.78076191     0.88800
O332        O  0.31912329  0.19729482  0.66676055    -0.74300
O333        O  0.28705163  0.22329779  0.79831671    -0.87100
O334        O  0.41474862  0.16086093  0.80782160    -0.79900
C335        C  0.36748120  0.23563627  0.86807463     0.93900
C336        C  0.26764891  0.30849064  0.80598262     0.93800
Mg337      Mg  0.37672232  0.14136869  0.73338196     1.58000
O338        O  0.36718279  0.08557307  0.72227349    -0.79800
O339        O  0.39332521  0.19686367  0.74201757    -0.74100
O340        O  0.34140555  0.24848752  0.85450067    -0.79900
O341        O  0.20610258  0.26012621  0.73092183    -0.81600
O342        O  0.28163410  0.13199817  0.64564337    -0.79900
C343        C  0.38379983  0.22008590  0.76209636     0.88200
O344        O  0.33590507  0.15779998  0.70140223    -0.87100
O345        O  0.34227891  0.14228399  0.77534788    -0.87200
O346        O  0.30181047  0.10910088  0.75783496    -0.74200
Mg347      Mg  0.32958943  0.25708436  0.79840504     1.58000
O348        O  0.37891070  0.20747897  0.85793889    -0.81600
H349        H  0.30224819  0.27452063  0.69447718    -0.05300
O350        O  0.26250757  0.16612431  0.71740380    -0.86900
H351        H  0.22614442  0.13746958  0.73799390    -0.05200
H352        H  0.36609523  0.17663084  0.66527928    -0.05300
C353        C  0.23885121  0.16169242  0.73734147     0.88200
C354        C  0.30116749  0.26257032  0.71910441     0.88800
C355        C  0.34157487  0.17697926  0.67735925     0.88800
H356        H  0.32110479  0.10748201  0.80552327    -0.05300
O357        O  0.30383395  0.18334315  0.83247593    -0.74300
Mg358      Mg  0.29325248  0.12409290  0.70189011     1.58000
H359        H  0.25676117  0.20378408  0.83399762    -0.05300
C360        C  0.19574551  0.24818906  0.70295442     0.93800
O361        O  0.24372883  0.17253726  0.64159560    -0.81600
C362        C  0.25522994  0.14413795  0.63203360     0.93900
O363        O  0.29546318  0.29826279  0.81804475    -0.81600
Mg364      Mg  0.35919801  0.17338388  0.81670056     1.58200
O365        O  0.20842065  0.22131501  0.69081250    -0.79900
O366        O  0.41693824  0.12154376  0.76850134    -0.81600
C367        C  0.43111763  0.96854327  0.62835803     0.04300
C368        C  0.42211791  0.93794160  0.64322073    -0.11800
C369        C  0.43727669  0.90788179  0.63329069     0.01800
C370        C  0.46227159  0.90813548  0.60807736    -0.10400
C371        C  0.47219230  0.93901899  0.59317040     0.04300
C372        C  0.45650865  0.96935374  0.60345253    -0.09800
H373        H  0.40262316  0.93743984  0.66259911     0.09900
H374        H  0.47384915  0.88465378  0.60010368     0.07400
H375        H  0.46384047  0.99319815  0.59203777     0.07300
O376        O  0.35512144  0.72157482  0.72203189    -0.87200
C377        C  0.32393073  0.71411758  0.82113310     0.88900
Mg378      Mg  0.32258027  0.74018006  0.68245898     1.58100
O379        O  0.33522917  0.63766591  0.77611909    -0.86900
O380        O  0.38998462  0.68138742  0.73618098    -0.74200
C381        C  0.19140370  0.64345173  0.69423045     0.93900
O382        O  0.30088091  0.76912877  0.76020164    -0.74000
O383        O  0.19998268  0.67179184  0.68185626    -0.81600
Mg384      Mg  0.35675991  0.75312964  0.76624558     1.58000
C385        C  0.25393887  0.56935933  0.78985315     0.93800
O386        O  0.41310794  0.74442620  0.77483836    -0.79800
H387        H  0.36374707  0.60302965  0.75279434    -0.05200
C388        C  0.23854416  0.67456374  0.77986062     0.88800
O389        O  0.31296125  0.68550402  0.66406445    -0.74300
O390        O  0.34223844  0.71011540  0.79617072    -0.87100
O391        O  0.28156259  0.58118167  0.80119392    -0.79900
C392        C  0.35841238  0.62674285  0.86112070     0.93900
C393        C  0.42729147  0.73179238  0.80072287     0.93800
Mg394      Mg  0.25996605  0.62297375  0.72941313     1.58000
O395        O  0.20417554  0.63367801  0.72195634    -0.79800
O396        O  0.31559553  0.60619669  0.73517874    -0.74100
O397        O  0.37227041  0.65217027  0.84709343    -0.79900
O398        O  0.37483787  0.79532625  0.73342561    -0.81600
O399        O  0.24693099  0.72193132  0.64639892    -0.79900
C400        C  0.33938613  0.61515553  0.75485777     0.88200
O401        O  0.27538791  0.66583572  0.69931409    -0.87100
O402        O  0.26198634  0.65521509  0.77287166    -0.87200
O403        O  0.22705865  0.69523417  0.75803133    -0.74200
Mg404      Mg  0.37705872  0.66866736  0.79191677     1.58000
O405        O  0.32985384  0.61583693  0.85143258    -0.81600
H406        H  0.38958423  0.70356625  0.68967670    -0.05300
O407        O  0.28162015  0.73876862  0.71824880    -0.86900
H408        H  0.25286093  0.77267769  0.74231515    -0.05200
H409        H  0.29359583  0.63789880  0.66123837    -0.05300
C410        C  0.27727860  0.76069504  0.74007011     0.88200
C411        C  0.37862434  0.70247100  0.71475475     0.88800
C412        C  0.29376938  0.66185975  0.67439532     0.88800
H413        H  0.22763765  0.67394258  0.80497785    -0.05300
O414        O  0.30413782  0.69082629  0.83101622    -0.74300
Mg415      Mg  0.24038473  0.70709446  0.70204201     1.58000
H416        H  0.32449264  0.73793261  0.83454549    -0.05300
C417        C  0.36331146  0.80673175  0.70581758     0.93800
O418        O  0.28638242  0.76131102  0.64339503    -0.81600
C419        C  0.25831916  0.74917691  0.63360425     0.93900
O420        O  0.41833012  0.70296325  0.81162487    -0.81600
Mg421      Mg  0.29437505  0.63650988  0.81221599     1.58200
O422        O  0.33588657  0.79534475  0.69354119    -0.79900
O423        O  0.24132312  0.58066556  0.76264284    -0.81600
C424        C  0.09064392  0.56395500  0.62712409     0.04300
C425        C  0.08981482  0.54139453  0.59973152    -0.11800
C426        C  0.05858811  0.52896373  0.58783964     0.01800
C427        C  0.02828864  0.54014246  0.60299092    -0.10400
C428        C  0.02949514  0.56282179  0.63035540     0.04300
C429        C  0.06059123  0.57417316  0.64227012    -0.09800
H430        H  0.11318897  0.53316200  0.58810440     0.09900
H431        H  0.00416005  0.53100464  0.59382204     0.07400
H432        H  0.06138217  0.59204110  0.66312084     0.07300
C433        C  0.09158338  0.31639841  0.62772332     0.04300
C434        C  0.09251243  0.34021025  0.60121270    -0.11800
C435        C  0.06207508  0.35238360  0.58712467     0.01800
C436        C  0.03091946  0.34015436  0.59962176    -0.10400
C437        C  0.03042060  0.31615547  0.62588081     0.04300
C438        C  0.06061928  0.30443048  0.63941781    -0.09800
H439        H  0.11655657  0.34977911  0.59218751     0.09900
H440        H  0.00739593  0.34965006  0.58938778     0.07400
H441        H  0.05998434  0.28594399  0.65978088     0.07300
O442        O  0.86068455  0.16469294  0.71752119    -0.87200
C443        C  0.82133897  0.26042347  0.72079458     0.88900
Mg444      Mg  0.82962036  0.12258372  0.70315168     1.58100
O445        O  0.83878411  0.22032216  0.79850842    -0.86900
O446        O  0.89566095  0.18329869  0.75577092    -0.74200
C447        C  0.69783642  0.12982964  0.80223630     0.93900
O448        O  0.80160274  0.19523629  0.66999874    -0.74000
O449        O  0.70789337  0.11759176  0.77431896    -0.81600
Mg450      Mg  0.85751001  0.20641096  0.68285069     1.58000
C451        C  0.76065460  0.23386304  0.87035992     0.93800
O452        O  0.91316387  0.22061735  0.68827610    -0.79800
H453        H  0.87068991  0.20183728  0.83314683    -0.05200
C454        C  0.74033639  0.21586800  0.76737782     0.88800
O455        O  0.82386390  0.10689792  0.75947845    -0.74300
O456        O  0.84222056  0.23759944  0.72484450    -0.87100
O457        O  0.78829279  0.24362950  0.85731137    -0.79900
C458        C  0.85793050  0.30555297  0.80600180     0.93900
C459        C  0.92680334  0.24689577  0.70073957     0.93800
Mg460      Mg  0.76766680  0.17007546  0.82121535     1.58000
O461        O  0.71209515  0.15546218  0.81539629    -0.79800
O462        O  0.82358680  0.18118877  0.83440518    -0.74100
O463        O  0.86849025  0.29361076  0.77808844    -0.79900
O464        O  0.87617539  0.17176379  0.64144999    -0.81600
O465        O  0.75853867  0.08214324  0.72726223    -0.79900
C466        C  0.84560737  0.20132814  0.82235738     0.88200
O467        O  0.78337700  0.13863740  0.77955174    -0.87100
O468        O  0.76489862  0.21148682  0.78608976    -0.87200
O469        O  0.73005674  0.19255033  0.74780122    -0.74200
Mg470      Mg  0.87829812  0.23812191  0.76550201     1.58000
O471        O  0.83071244  0.29476498  0.81902455    -0.81600
H472        H  0.89816547  0.13606510  0.73564168    -0.05300
O473        O  0.78699505  0.15557193  0.70558252    -0.86900
H474        H  0.75476913  0.17401199  0.67121518    -0.05200
H475        H  0.80709974  0.10428266  0.80815287    -0.05300
C476        C  0.77989486  0.17468118  0.68189704     0.88200
C477        C  0.88535073  0.16017488  0.73602392     0.88800
C478        C  0.80465609  0.11617291  0.78360329     0.88800
H479        H  0.72754379  0.23999254  0.76747193    -0.05300
O480        O  0.80210231  0.26978262  0.74483806    -0.74300
Mg481      Mg  0.74763030  0.13762448  0.73863309     1.58000
H482        H  0.81923962  0.27251260  0.69630810    -0.05300
C483        C  0.86395153  0.14349341  0.63250905     0.93800
O484        O  0.79520973  0.08103955  0.68543928    -0.81600
C485        C  0.76831422  0.07021912  0.69907766     0.93900
O486        O  0.91737023  0.25832378  0.72922822    -0.81600
Mg487      Mg  0.79618461  0.25354105  0.80091270     1.58200
O488        O  0.83746860  0.13204972  0.64662263    -0.79900
O489        O  0.74822193  0.20548990  0.86198927    -0.81600
C490        C  0.68774267  0.97069510  0.63093809     0.04300
C491        C  0.66306957  0.97106902  0.60540385    -0.11800
C492        C  0.64889967  0.94034226  0.59397597     0.01800
C493        C  0.66002381  0.90950504  0.60803600    -0.10400
C494        C  0.68460280  0.90963866  0.63365187     0.04300
C495        C  0.69802187  0.94014482  0.64487243    -0.09800
H496        H  0.65495149  0.99488555  0.59457794     0.09900
H497        H  0.64972470  0.88574875  0.59906204     0.07400
H498        H  0.71744832  0.94007593  0.66428077     0.07300
O499        O  0.78835363  0.72589070  0.70290814    -0.87200
C500        C  0.88450368  0.72436196  0.74031754     0.88900
Mg501      Mg  0.74672456  0.74123727  0.73484445     1.58100
O502        O  0.84527786  0.64584537  0.72462796    -0.86900
O503        O  0.80638735  0.68715432  0.66816001    -0.74200
C504        C  0.75348168  0.64171596  0.86512693     0.93900
O505        O  0.81996801  0.77419544  0.76028487    -0.74000
O506        O  0.74311575  0.67059352  0.85590659    -0.81600
Mg507      Mg  0.82999797  0.76081449  0.70392881     1.58000
C508        C  0.85821048  0.57344341  0.80249902     0.93800
O509        O  0.84401920  0.75473941  0.64783700    -0.79800
H510        H  0.82657464  0.61107916  0.69298925    -0.05200
C511        C  0.84100549  0.67729215  0.82355129     0.88800
O512        O  0.73013530  0.68539357  0.74130301    -0.74300
O513        O  0.86213999  0.71967147  0.71903311    -0.87100
O514        O  0.87091545  0.58827358  0.77691106    -0.79900
C515        C  0.93036585  0.63858828  0.70463595     0.93900
C516        C  0.86922239  0.74100476  0.63334163     0.93800
Mg517      Mg  0.79471667  0.62377134  0.79592657     1.58000
O518        O  0.77948479  0.62850524  0.85166733    -0.79800
O519        O  0.80564136  0.61072751  0.74002921    -0.74100
O520        O  0.91761102  0.66512161  0.69178260    -0.79900
O521        O  0.79409100  0.80119457  0.68511239    -0.81600
O522        O  0.70740083  0.71853069  0.80759687    -0.79900
C523        C  0.82612627  0.62211975  0.71802724     0.88200
O524        O  0.76334762  0.66569673  0.78077148    -0.87100
O525        O  0.83638812  0.65874144  0.79888206    -0.87200
O526        O  0.81796285  0.69700746  0.83391790    -0.74200
Mg527      Mg  0.86177382  0.67789737  0.68396183     1.58000
O528        O  0.92006958  0.62747187  0.73294594    -0.81600
H529        H  0.75890531  0.70658001  0.66656416    -0.05300
O530        O  0.78053071  0.73922525  0.77693696    -0.86900
H531        H  0.80048765  0.77386811  0.80801392    -0.05200
H532        H  0.72775418  0.63707432  0.75893973    -0.05300
C533        C  0.80015493  0.76277343  0.78299832     0.88200
C534        C  0.78334956  0.70678643  0.67874313     0.88800
C535        C  0.73996570  0.66150484  0.76049417     0.88800
H536        H  0.86516016  0.67700888  0.83629531    -0.05300
O537        O  0.89352778  0.70097860  0.76047314    -0.74300
Mg538      Mg  0.76311129  0.70649280  0.81677483     1.58000
H539        H  0.89629326  0.74898303  0.74215196    -0.05300
C540        C  0.76656254  0.81008481  0.69887902     0.93800
O541        O  0.70527577  0.75949370  0.76983536    -0.81600
C542        C  0.69441701  0.74582590  0.79682239     0.93900
O543        O  0.88050224  0.71265238  0.64311666    -0.81600
Mg544      Mg  0.87853011  0.64483393  0.76741346     1.58200
O545        O  0.75758116  0.79714340  0.72687336    -0.79900
O546        O  0.82976826  0.58239903  0.81431396    -0.81600
C547        C  0.42917747  0.56340334  0.03091985     0.04300
C548        C  0.41607233  0.57334715  0.99985968    -0.11800
C549        C  0.42858161  0.56037118  0.96963479     0.01800
C550        C  0.45554235  0.53731572  0.97028025    -0.10400
C551        C  0.46919688  0.52672629  0.00156567     0.04300
C552        C  0.45593119  0.54004112  0.03203434    -0.09800
H553        H  0.39566622  0.59164641  0.99922075     0.09900
H554        H  0.46532610  0.52712751  0.94678046     0.07400
H555        H  0.46605738  0.53202605  0.05621742     0.07300
C556        C  0.68346344  0.31191303  0.02698906     0.04300
C557        C  0.65832509  0.33681475  0.02674080    -0.11800
C558        C  0.64819136  0.35160064  0.99589469     0.01800
C559        C  0.66360792  0.34105303  0.96531837    -0.10400
C560        C  0.68919641  0.31631641  0.96603741     0.04300
C561        C  0.69884744  0.30222207  0.99686291    -0.09800
H562        H  0.64656649  0.34450983  0.05029306     0.09900
H563        H  0.65557563  0.35171439  0.94136696     0.07400
H564        H  0.71821283  0.28282294  0.99735253     0.07300
C565        C  0.68759039  0.56436948  0.02915757     0.04300
C566        C  0.66193902  0.53963637  0.03003576    -0.11800
C567        C  0.64648371  0.52887716  0.99961116     0.01800
C568        C  0.65679130  0.54329398  0.96855529    -0.10400
C569        C  0.68166562  0.56862946  0.96813018     0.04300
C570        C  0.69655184  0.57897289  0.99828881    -0.09800
H571        H  0.65454888  0.52836065  0.05395245     0.09900
H572        H  0.64539491  0.53500728  0.94503852     0.07400
H573        H  0.71584302  0.59852671  0.99762037     0.07300
C574        C  0.52941968  0.05952838  0.12601222     0.04300
C575        C  0.55924079  0.07256419  0.13923452    -0.11800
C576        C  0.59062381  0.06196429  0.12733725     0.01800
C577        C  0.59229820  0.03848326  0.10067117    -0.10400
C578        C  0.56223058  0.02502322  0.08688946     0.04300
C579        C  0.53071090  0.03573871  0.09968566    -0.09800
H580        H  0.55798774  0.09097252  0.15958244     0.09900
H581        H  0.61661579  0.02999256  0.09143123     0.07400
H582        H  0.50750580  0.02534457  0.08950990     0.07300
C583        C  0.19037354  0.40983211  0.12230651     0.04300
C584        C  0.16447828  0.40964881  0.09791349    -0.11800
C585        C  0.14951774  0.44036360  0.08754206     0.01800
C586        C  0.16047403  0.47100453  0.10225914    -0.10400
C587        C  0.18616970  0.47075937  0.12681205     0.04300
C588        C  0.20087105  0.44032019  0.13642852    -0.09800
H589        H  0.15618624  0.38594812  0.08694971     0.09900
H590        H  0.14929253  0.49475378  0.09448110     0.07400
H591        H  0.22070571  0.44034621  0.15540366     0.07300
C592        C  0.18592559  0.06699249  0.52961362     0.04300
C593        C  0.19993802  0.07797362  0.49921325    -0.11800
C594        C  0.18815361  0.06599121  0.46829396     0.01800
C595        C  0.16189291  0.04206541  0.46748822    -0.10400
C596        C  0.14763344  0.03011992  0.49804357     0.04300
C597        C  0.15960860  0.04297201  0.52926019    -0.09800
H598        H  0.21995050  0.09680340  0.49959909     0.09900
H599        H  0.15263706  0.03281204  0.44339477     0.07400
H600        H  0.14869260  0.03424172  0.55288579     0.07300
N601        N  0.11015321  0.94210297  0.49506397    -0.35400
N602        N  0.05754287  0.89053208  0.49528462    -0.56000
N603        N  0.00616643  0.94356897  0.49456059    -0.35400
N604        N  0.05869142  0.99519493  0.49615578    -0.56000
C605        C  0.12905129  0.91410656  0.50094256     0.28200
C606        C  0.12975323  0.96950614  0.50161435     0.28200
C607        C  0.98685459  0.91598759  0.50131025     0.28100
C608        C  0.98739752  0.97135126  0.50163549     0.28100
C609        C  0.08465796  0.87027388  0.49056838     0.36800
C610        C  0.02981012  0.87113785  0.49023703     0.36800
C611        C  0.08655089  0.01472896  0.49197135     0.36800
C612        C  0.03153606  0.01543888  0.49126434     0.36800
C613        C  0.16123040  0.92390989  0.51080265    -0.20700
C614        C  0.16167433  0.95873251  0.51122254    -0.20700
C615        C  0.95537502  0.92634444  0.51260512    -0.20700
C616        C  0.95567768  0.96117343  0.51275996    -0.20700
C617        C  0.07406145  0.83775985  0.48278225    -0.21800
C618        C  0.03936806  0.83831604  0.48251339    -0.21800
C619        C  0.07700601  0.04765052  0.48463830    -0.21800
C620        C  0.04225207  0.04810104  0.48420137    -0.21800
C621        C  0.11871512  0.88003183  0.49579728    -0.17100
C622        C  0.12035873  0.00392761  0.49715183    -0.17100
C623        C  0.99735333  0.00551496  0.49612697    -0.17100
C624        C  0.99606501  0.88183819  0.49535406    -0.17100
H625        H  0.18242931  0.90771610  0.51669572     0.15800
H626        H  0.18328528  0.97430523  0.51750098     0.15800
H627        H  0.93415153  0.91047646  0.51955564     0.15800
H628        H  0.93462035  0.97707488  0.51980397     0.15800
H629        H  0.08964915  0.81575739  0.47833631     0.14100
H630        H  0.02306941  0.81680176  0.47788219     0.14100
H631        H  0.09334373  0.06927614  0.48063218     0.14100
H632        H  0.02670673  0.07016382  0.47991598     0.14100
H633        H  0.08656481  0.94255700  0.48379007     0.27300
H634        H  0.02920337  0.94343375  0.48205203     0.27300
N635        N  0.56253883  0.93659730  0.05122478    -0.35400
N636        N  0.55995973  0.88359883  0.99982336    -0.56000
N637        N  0.55604270  0.93573267  0.94674156    -0.35400
N638        N  0.56179280  0.98865273  0.99834128    -0.56000
C639        C  0.56834034  0.90914355  0.07100086     0.28200
C640        C  0.56842242  0.96452086  0.07022916     0.28200
C641        C  0.55946833  0.90773839  0.92722590     0.28100
C642        C  0.56060315  0.96316976  0.92652209     0.28100
C643        C  0.55808770  0.86375695  0.02782327     0.36800
C644        C  0.55492974  0.86324912  0.97268300     0.36800
C645        C  0.55921508  0.00897384  0.02581733     0.36800
C646        C  0.55729864  0.00856488  0.97078355     0.36800
C647        C  0.57779911  0.91986993  0.10308822    -0.20700
C648        C  0.57780677  0.95465766  0.10261164    -0.20700
C649        C  0.56539473  0.91762804  0.89397454    -0.20700
C650        C  0.56612637  0.95244795  0.89354957    -0.20700
C651        C  0.55222712  0.83052056  0.01834738    -0.21800
C652        C  0.55028780  0.83018628  0.98354731    -0.21800
C653        C  0.55364316  0.04204928  0.01559878    -0.21800
C654        C  0.55253922  0.04181397  0.98083463    -0.21800
C655        C  0.56336232  0.87473618  0.06171163    -0.17100
C656        C  0.56346484  0.99861763  0.05997465    -0.17100
C657        C  0.55877053  0.99765662  0.93657458    -0.17100
C658        C  0.55651433  0.87349628  0.93814220    -0.17100
H659        H  0.58357940  0.90431674  0.12488753     0.15800
H660        H  0.58361367  0.97078957  0.12395620     0.15800
H661        H  0.56883007  0.90146727  0.87213943     0.15800
H662        H  0.57023072  0.96807496  0.87138310     0.15800
H663        H  0.55004303  0.80866576  0.03474938     0.14100
H664        H  0.54627993  0.80800798  0.96801040     0.14100
H665        H  0.55100978  0.06416746  0.03149962     0.14100
H666        H  0.54873927  0.06370765  0.96481044     0.14100
H667        H  0.55141154  0.93638497  0.02752364     0.27300
H668        H  0.54814257  0.93610087  0.97173138     0.27300
N669        N  0.06088234  0.44130786  0.05142621    -0.35400
N670        N  0.11308515  0.44059952  0.99899745    -0.56000
N671        N  0.06045898  0.44299472  0.94663669    -0.35400
N672        N  0.00822434  0.44012248  0.99903911    -0.56000
C673        C  0.08861313  0.43625799  0.07094534     0.28200
C674        C  0.03327504  0.43556751  0.07099323     0.28200
C675        C  0.08809752  0.43771101  0.92699943     0.28100
C676        C  0.03274909  0.43815303  0.92700285     0.28100
C677        C  0.13326096  0.44416323  0.02648698     0.36800
C678        C  0.13310047  0.44413115  0.97134487     0.36800
C679        C  0.98817333  0.44249601  0.02677423     0.36800
C680        C  0.98792620  0.44367851  0.97163134     0.36800
C681        C  0.07843185  0.42763846  0.10347344    -0.20700
C682        C  0.04364030  0.42720842  0.10350632    -0.20700
C683        C  0.07776417  0.43001637  0.89432931    -0.20700
C684        C  0.04299633  0.43036165  0.89431141    -0.20700
C685        C  0.16632372  0.44963150  0.01617851    -0.21800
C686        C  0.16622693  0.44956300  0.98136159    -0.21800
C687        C  0.95487743  0.44697162  0.01684938    -0.21800
C688        C  0.95472468  0.44769463  0.98204342    -0.21800
C689        C  0.12283240  0.44056148  0.06075840    -0.17100
C690        C  0.99897899  0.43920300  0.06095074    -0.17100
C691        C  0.99845261  0.44151115  0.93728393    -0.17100
C692        C  0.12243657  0.44087730  0.93715544    -0.17100
H693        H  0.09439154  0.42237100  0.12508063     0.15800
H694        H  0.02779438  0.42155145  0.12515508     0.15800
H695        H  0.09362588  0.42479030  0.87261474     0.15800
H696        H  0.02710567  0.42541471  0.87257602     0.15800
H697        H  0.18834945  0.45290407  0.03207028     0.14100
H698        H  0.18814428  0.45286307  0.96526352     0.14100
H699        H  0.93286599  0.44916166  0.03298322     0.14100
H700        H  0.93259816  0.45053463  0.96622101     0.14100
H701        H  0.06073759  0.45148847  0.02725480     0.27300
H702        H  0.06055084  0.45248388  0.97106541     0.27300
N703        N  0.61082459  0.43990442  0.99592769    -0.35400
N704        N  0.55938437  0.38659503  0.99985115    -0.56000
N705        N  0.50682422  0.43856993  0.00519064    -0.35400
N706        N  0.55824703  0.49193695  0.00129498    -0.56000
C707        C  0.63111966  0.41235412  0.99819645     0.28200
C708        C  0.63049906  0.46771835  0.00043828     0.28200
C709        C  0.48708755  0.41056094  0.00252901     0.28100
C710        C  0.48649064  0.46599168  0.00179139     0.28100
C711        C  0.58697240  0.36654842  0.99729826     0.36800
C712        C  0.53220937  0.36584940  0.00233188     0.36800
C713        C  0.58551931  0.51261562  0.99977163     0.36800
C714        C  0.53056609  0.51199291  0.00195619     0.36800
C715        C  0.66413730  0.42289867  0.00349245    -0.20700
C716        C  0.66375096  0.45763096  0.00490600    -0.20700
C717        C  0.45376274  0.42037747  0.99815386    -0.20700
C718        C  0.45338538  0.45513907  0.99766129    -0.20700
C719        C  0.57719692  0.33285341  0.99810086    -0.21800
C720        C  0.54267070  0.33241275  0.00146421    -0.21800
C721        C  0.57504927  0.54606649  0.99949834    -0.21800
C722        C  0.54036047  0.54566901  0.00086096    -0.21800
C723        C  0.62106025  0.37783953  0.99599854    -0.17100
C724        C  0.61981489  0.50208027  0.99991717    -0.17100
C725        C  0.49648525  0.50063810  0.00235522    -0.17100
C726        C  0.49789827  0.37626452  0.00373178    -0.17100
H727        H  0.68629577  0.40719044  0.00645354     0.15800
H728        H  0.68561240  0.47359765  0.00894638     0.15800
H729        H  0.43189145  0.40417654  0.99519583     0.15800
H730        H  0.43112889  0.47062887  0.99433832     0.15800
H731        H  0.59328028  0.31079364  0.99680656     0.14100
H732        H  0.52704181  0.30994982  0.00276076     0.14100
H733        H  0.59074923  0.56849864  0.99861724     0.14100
H734        H  0.52420538  0.56771525  0.00083396     0.14100
H735        H  0.58558985  0.43981515  0.98903453     0.27300
H736        H  0.53222247  0.43890337  0.01138710     0.27300
N737        N  0.05611190  0.49390580  0.49845104    -0.35400
N738        N  0.06042368  0.44236679  0.44565431    -0.56000
N739        N  0.06435698  0.38940159  0.49832311    -0.35400
N740        N  0.06025678  0.44098501  0.55103711    -0.56000
C741        C  0.05884890  0.51433934  0.47088198     0.28200
C742        C  0.05825184  0.51368115  0.52642983     0.28200
C743        C  0.06050514  0.36971583  0.47048242     0.28100
C744        C  0.06159261  0.36907447  0.52595292     0.28100
C745        C  0.05989696  0.46996754  0.42526420     0.36800
C746        C  0.06139215  0.41489810  0.42524996     0.36800
C747        C  0.05889670  0.46836950  0.57152084     0.36800
C748        C  0.06229868  0.41346666  0.57141017     0.36800
C749        C  0.06176969  0.54761745  0.48159436    -0.20700
C750        C  0.06137024  0.54720828  0.51645256    -0.20700
C751        C  0.05631861  0.33632821  0.48060403    -0.20700
C752        C  0.05706027  0.33592662  0.51543200    -0.20700
C753        C  0.06071250  0.45991471  0.39164262    -0.21800
C754        C  0.06165192  0.42517827  0.39162547    -0.21800
C755        C  0.06003821  0.45808861  0.60513292    -0.21800
C756        C  0.06222620  0.42347152  0.60505186    -0.21800
C757        C  0.05907767  0.50419508  0.43625663    -0.17100
C758        C  0.05786860  0.50268858  0.56080638    -0.17100
C759        C  0.06270264  0.37927296  0.56047834    -0.17100
C760        C  0.06072944  0.38058429  0.43609134    -0.17100
H761        H  0.06439373  0.56996828  0.46594178     0.15800
H762        H  0.06361517  0.56919420  0.53260468     0.15800
H763        H  0.05273855  0.31442540  0.46457614     0.15800
H764        H  0.05408544  0.31369984  0.53119940     0.15800
H765        H  0.06058748  0.47591516  0.36937425     0.14100
H766        H  0.06217313  0.40931179  0.36930680     0.14100
H767        H  0.05956174  0.47387519  0.62750763     0.14100
H768        H  0.06335001  0.40750292  0.62731341     0.14100
H769        H  0.05106313  0.46824612  0.49830532     0.27300
H770        H  0.07076666  0.41478501  0.49832901     0.27300
N771        N  0.61329634  0.94297539  0.50516469    -0.35400
N772        N  0.56110573  0.94224983  0.45242433    -0.56000
N773        N  0.50864994  0.94295498  0.50475631    -0.35400
N774        N  0.56073536  0.93946163  0.55747498    -0.56000
C775        C  0.63308806  0.93904805  0.47741434     0.28200
C776        C  0.63291197  0.93848988  0.53289809     0.28200
C777        C  0.48913200  0.93887447  0.47687071     0.28100
C778        C  0.48887783  0.93763872  0.53229452     0.28100
C779        C  0.58869587  0.94552837  0.43237547     0.36800
C780        C  0.53375769  0.94588510  0.43216330     0.36800
C781        C  0.58807861  0.94162748  0.57795685     0.36800
C782        C  0.53315547  0.94122856  0.57772001     0.36800
C783        C  0.66595517  0.93264211  0.48771396    -0.20700
C784        C  0.66586465  0.93237862  0.52260340    -0.20700
C785        C  0.45631094  0.93155250  0.48690893    -0.20700
C786        C  0.45614807  0.93080446  0.52175358    -0.20700
C787        C  0.57874225  0.95094748  0.39912445    -0.21800
C788        C  0.54405807  0.95118584  0.39900225    -0.21800
C789        C  0.57774796  0.94402414  0.61145448    -0.21800
C790        C  0.54307221  0.94377023  0.61130274    -0.21800
C791        C  0.62277860  0.94214768  0.44304968    -0.17100
C792        C  0.62232762  0.94046101  0.56727402    -0.17100
C793        C  0.49906293  0.93960259  0.56674105    -0.17100
C794        C  0.49958571  0.94262074  0.44260684    -0.17100
H795        H  0.68784462  0.92868713  0.47176362     0.15800
H796        H  0.68766001  0.92807152  0.53855249     0.15800
H797        H  0.43459739  0.92726854  0.47082947     0.15800
H798        H  0.43432232  0.92573764  0.53751787     0.15800
H799        H  0.59477862  0.95414695  0.37711864     0.14100
H800        H  0.52824331  0.95454080  0.37690958     0.14100
H801        H  0.59353581  0.94571038  0.63376025     0.14100
H802        H  0.52700919  0.94523823  0.63346098     0.14100
H803        H  0.58843448  0.95115227  0.50522888     0.27300
H804        H  0.53326546  0.95196947  0.50507726     0.27300
C805        C  0.73861737  0.58707695  0.89456447     0.24800
C806        C  0.73373784  0.62227424  0.89060851    -0.23300
C807        C  0.70756293  0.63795977  0.90903453     0.19700
C808        C  0.68814275  0.61938321  0.93202502     0.24700
C809        C  0.69413885  0.58477760  0.93693858    -0.23300
C810        C  0.71897094  0.56858436  0.91757705     0.19600
F811        F  0.72555073  0.53524532  0.92247308    -0.13200
F812        F  0.76248111  0.57041694  0.87637858    -0.15600
F813        F  0.66462214  0.63558893  0.95105358    -0.15600
F814        F  0.70124809  0.67153218  0.90567031    -0.13200
C815        C  0.72424578  0.86157450  0.62973490     0.24800
C816        C  0.69935671  0.87878016  0.64809429    -0.23300
C817        C  0.69580048  0.87259333  0.68294772     0.19700
C818        C  0.71779091  0.85057397  0.69956465     0.24700
C819        C  0.74386459  0.83432031  0.68155928    -0.23300
C820        C  0.74627691  0.83943198  0.64623299     0.19600
F821        F  0.77009342  0.82325451  0.62756813    -0.13200
F822        F  0.72872248  0.86809427  0.59623962    -0.15600
F823        F  0.71438492  0.84636016  0.73353213    -0.15600
F824        F  0.67230110  0.88964749  0.70125653    -0.13200
C825        C  0.70707371  0.25133179  0.89987569     0.24800
C826        C  0.74182022  0.25667182  0.89367281    -0.23300
C827        C  0.75732769  0.28568323  0.90757936     0.19700
C828        C  0.73896681  0.30765940  0.92844627     0.24700
C829        C  0.70471196  0.30139828  0.93552297    -0.23300
C830        C  0.68881443  0.27351360  0.92049104     0.19600
F831        F  0.65603390  0.26641733  0.92781134    -0.13200
F832        F  0.69061740  0.22441079  0.88632575    -0.15600
F833        F  0.75511603  0.33403289  0.94340518    -0.15600
F834        F  0.79058225  0.29219837  0.90211525    -0.13200
C835        C  0.75697577  0.03254484  0.64894122     0.24800
C836        C  0.74702924  0.04511691  0.68091600    -0.23300
C837        C  0.71496654  0.03589865  0.69369881     0.19700
C838        C  0.69400774  0.01405372  0.67547760     0.24700
C839        C  0.70436139  0.00119476  0.64408935    -0.23300
C840        C  0.73583838  0.01074025  0.63083871     0.19600
F841        F  0.74697266  0.99722543  0.60126128    -0.13200
F842        F  0.78745426  0.04065166  0.63533138    -0.15600
F843        F  0.66431562  0.00377983  0.68939153    -0.15600
F844        F  0.70388647  0.04751552  0.72408284    -0.13200
C845        C  0.98377411  0.27420054  0.62785008     0.24800
C846        C  0.99921885  0.30308288  0.64134960    -0.23300
C847        C  0.99076316  0.31362933  0.67417898     0.19700
C848        C  0.96775967  0.29516184  0.69367353     0.24700
C849        C  0.95278104  0.26545619  0.68074408    -0.23300
C850        C  0.96076612  0.25549820  0.64727088     0.19600
F851        F  0.94684824  0.22736815  0.63332101    -0.13200
F852        F  0.99247645  0.26303430  0.59652308    -0.15600
F853        F  0.96087005  0.30613201  0.72549690    -0.15600
F854        F  0.00636073  0.34090801  0.68806483    -0.13200
C855        C  0.96195587  0.62580857  0.65060017     0.24800
C856        C  0.95563583  0.61867269  0.68514491    -0.23300
C857        C  0.97065271  0.58968067  0.69959557     0.19700
C858        C  0.99221272  0.56929005  0.68045449     0.24700
C859        C  0.99925051  0.57723584  0.64652003    -0.23300
C860        C  0.98349762  0.60519595  0.63156136     0.19600
F861        F  0.99049777  0.61359065  0.59892834    -0.13200
F862        F  0.94749252  0.65278336  0.63506996    -0.15600
F863        F  0.00749315  0.54247608  0.69548682    -0.15600
F864        F  0.96504736  0.58119032  0.73247660    -0.13200
C865        C  0.37717524  0.56824225  0.93468934     0.24800
C866        C  0.41231413  0.57213102  0.93822686    -0.23300
C867        C  0.42986445  0.59333477  0.91582482     0.19700
C868        C  0.41234789  0.61134823  0.89090744     0.24700
C869        C  0.37683486  0.60854233  0.88818314    -0.23300
C870        C  0.35959448  0.58623746  0.90998574     0.19600
F871        F  0.32552185  0.58262424  0.90826338    -0.13200
F872        F  0.35962190  0.54817264  0.95645657    -0.15600
F873        F  0.43025438  0.63150527  0.86952129    -0.15600
F874        F  0.46365648  0.59811029  0.91934836    -0.13200
C875        C  0.15489999  0.59125751  0.69092406     0.24800
C876        C  0.16753684  0.62105212  0.67570803    -0.23300
C877        C  0.15893880  0.62786874  0.64165089     0.19700
C878        C  0.13629055  0.60693399  0.62430548     0.24700
C879        C  0.12201774  0.57877004  0.64049129    -0.23300
C880        C  0.13219442  0.57052462  0.67350125     0.19600
F881        F  0.11858042  0.54328546  0.68951468    -0.13200
F882        F  0.16361495  0.58253542  0.72302178    -0.15600
F883        F  0.12662452  0.61535591  0.59240249    -0.15600
F884        F  0.17212088  0.65495831  0.62507372    -0.13200
C885        C  0.43136011  0.87062314  0.68324793     0.24800
C886        C  0.42426824  0.87688945  0.64902607    -0.23300
C887        C  0.39765824  0.85966377  0.63326607     0.19700
C888        C  0.37751146  0.83722093  0.65177008     0.24700
C889        C  0.38349829  0.83190954  0.68662326    -0.23300
C890        C  0.41133054  0.84822860  0.70189050     0.19600
F891        F  0.41872407  0.84337208  0.73511858    -0.13200
F892        F  0.45651837  0.88781777  0.69909500    -0.15600
F893        F  0.35216009  0.82081679  0.63543802    -0.15600
F894        F  0.38985169  0.86631516  0.60044027    -0.13200
C895        C  0.20404167  0.13308106  0.59536547     0.24800
C896        C  0.23677816  0.12376214  0.60611311    -0.23300
C897        C  0.25029545  0.09293145  0.59417961     0.19700
C898        C  0.23199714  0.07261914  0.57169480     0.24700
C899        C  0.19978142  0.08236190  0.56067684    -0.23300
C900        C  0.18586691  0.11259862  0.57283276     0.19600
F901        F  0.15538668  0.12324649  0.56129438    -0.13200
F902        F  0.18957241  0.16219772  0.60627216    -0.15600
F903        F  0.24653226  0.04421101  0.55907988    -0.15600
F904        F  0.28164158  0.08263490  0.60348717    -0.13200
C905        C  0.16615646  0.26113254  0.64803826     0.24800
C906        C  0.16963599  0.26662524  0.68326687    -0.23300
C907        C  0.14974406  0.29177145  0.69868766     0.19700
C908        C  0.12623548  0.31000261  0.67968100     0.24700
C909        C  0.12200662  0.30354967  0.64493509    -0.23300
C910        C  0.14232759  0.27924704  0.62918074     0.19600
F911        F  0.13785791  0.27181134  0.59591138    -0.13200
F912        F  0.18586043  0.23832346  0.63165161    -0.15600
F913        F  0.10636942  0.33306720  0.69551681    -0.15600
F914        F  0.15224361  0.29814692  0.73238081    -0.13200
C915        C  0.41001962  0.04359019  0.68225319     0.24800
C916        C  0.37464388  0.04565562  0.67790352    -0.23300
C917        C  0.35902558  0.02437429  0.65399431     0.19700
C918        C  0.37815720  0.00110380  0.63558594     0.24700
C919        C  0.41323584  0.99878144  0.64046292    -0.23300
C920        C  0.42906909  0.02038037  0.66362544     0.19600
F921        F  0.46273201  0.01765077  0.66957633    -0.13200
F922        F  0.42636047  0.06406117  0.70446716    -0.15600
F923        F  0.36223457  0.97955526  0.61407774    -0.15600
F924        F  0.32508176  0.02522444  0.64918227    -0.13200
C925        C  0.43078950  0.25838044  0.93670736     0.24800
C926        C  0.42365321  0.29272319  0.94205202    -0.23300
C927        C  0.39830545  0.30835145  0.92299813     0.19700
C928        C  0.37956876  0.28968217  0.89950820     0.24700
C929        C  0.38587445  0.25482746  0.89468342    -0.23300
C930        C  0.41215094  0.23956807  0.91329495     0.19600
F931        F  0.41936248  0.20622707  0.90959998    -0.13200
F932        F  0.45492352  0.24271698  0.95541544    -0.15600
F933        F  0.35524182  0.30590070  0.88159057    -0.15600
F934        F  0.39051488  0.34132393  0.92846277    -0.13200
C935        C  0.70765346  0.61120423  0.10989626     0.24800
C936        C  0.74330501  0.61226052  0.10858172    -0.23300
C937        C  0.76011644  0.59340078  0.08363659     0.19700
C938        C  0.74171606  0.57568652  0.05924165     0.24700
C939        C  0.70612454  0.57606141  0.05950053    -0.23300
C940        C  0.68924286  0.59321060  0.08554347     0.19600
F941        F  0.65496792  0.59408621  0.08632973    -0.13200
F942        F  0.69056086  0.62742201  0.13489392    -0.15600
F943        F  0.75868827  0.55925583  0.03430315    -0.15600
F944        F  0.79437735  0.59312726  0.08201276    -0.13200
C945        C  0.96205589  0.59664704  0.31060862     0.24800
C946        C  0.95112447  0.62778282  0.32423087    -0.23300
C947        C  0.96204731  0.63666057  0.35714538     0.19700
C948        C  0.98479485  0.61608895  0.37481843     0.24700
C949        C  0.99678176  0.58609299  0.36028210    -0.23300
C950        C  0.98476870  0.57622691  0.32839850     0.19600
F951        F  0.99648610  0.54751607  0.31371423    -0.13200
F952        F  0.95125281  0.58596479  0.27980330    -0.15600
F953        F  0.99657223  0.62635748  0.40543390    -0.15600
F954        F  0.95124721  0.66548632  0.37222241    -0.13200
C955        C  0.73230865  0.83234614  0.35447119     0.24800
C956        C  0.72589793  0.82777149  0.31954296    -0.23300
C957        C  0.70096156  0.84780382  0.30393625     0.19700
C958        C  0.68419646  0.87285253  0.32238409     0.24700
C959        C  0.69143340  0.87786532  0.35686521    -0.23300
C960        C  0.71517391  0.85713715  0.37287133     0.19600
F961        F  0.72330794  0.86235713  0.40586915    -0.13200
F962        F  0.75530861  0.81298243  0.37099026    -0.15600
F963        F  0.66197231  0.89340225  0.30622446    -0.15600
F964        F  0.69358474  0.84407184  0.27056144    -0.13200
C965        C  0.64526192  0.08980576  0.19956752     0.24800
C966        C  0.66529258  0.11499438  0.18421535    -0.23300
C967        C  0.66403462  0.11870938  0.14859839     0.19700
C968        C  0.64177883  0.09907440  0.12920094     0.24700
C969        C  0.62057912  0.07539856  0.14501682    -0.23300
C970        C  0.62322619  0.07026320  0.18014733     0.19600
F971        F  0.60294453  0.04736602  0.19591118    -0.13200
F972        F  0.64605583  0.08473468  0.23358255    -0.15600
F973        F  0.63966603  0.10442129  0.09528323    -0.15600
F974        F  0.68438790  0.14124009  0.13243803    -0.13200
C975        C  0.72107135  0.31058355  0.07689177     0.24800
C976        C  0.69518866  0.29544654  0.05815444    -0.23300
C977        C  0.68628223  0.26167796  0.06457647     0.19700
C978        C  0.70371924  0.24289260  0.08893695     0.24700
C979        C  0.73082751  0.25752445  0.10695688    -0.23300
C980        C  0.73866204  0.29195196  0.10118939     0.19600
F981        F  0.76341384  0.30778724  0.11892871    -0.13200
F982        F  0.73050153  0.34297701  0.07031016    -0.15600
F983        F  0.69450979  0.21019902  0.09416606    -0.15600
F984        F  0.66162542  0.24649610  0.04610694    -0.13200
C985        C  0.71246008  0.03385226  0.31094208     0.24800
C986        C  0.74129590  0.04860205  0.32592147    -0.23300
C987        C  0.74963029  0.03945887  0.35954135     0.19700
C988        C  0.73015072  0.01565761  0.37720938     0.24700
C989        C  0.70207629  0.00061563  0.36175085    -0.23300
C990        C  0.69329810  0.00996311  0.32862915     0.19600
F991        F  0.66673626  0.99485524  0.31294665    -0.13200
F992        F  0.70291687  0.04202775  0.27893853    -0.15600
F993        F  0.73960235  0.00609827  0.40885786    -0.15600
F994        F  0.77653915  0.05354442  0.37553427    -0.13200
C995        C  0.22935111  0.51595293  0.13035498     0.24800
C996        C  0.19944262  0.50160289  0.14282645    -0.23300
C997        C  0.18729463  0.51147933  0.17468762     0.19700
C998        C  0.20477940  0.53555800  0.19387204     0.24700
C999        C  0.23499983  0.55012888  0.18151422    -0.23300
C1000       C  0.24691605  0.54002424  0.14932752     0.19600
F1001       F  0.27587616  0.55297245  0.13617737    -0.13200
F1002       F  0.24238575  0.50542486  0.10033814    -0.15600
F1003       F  0.19215789  0.54423487  0.22464248    -0.15600
F1004       F  0.15919168  0.49668641  0.18782352    -0.13200
C1005       C  0.42741554  0.60824125  0.07481174     0.24800
C1006       C  0.41345589  0.57870304  0.06106495    -0.23300
C1007       C  0.38002066  0.56994707  0.06916243     0.19700
C1008       C  0.36072511  0.59044459  0.09051370     0.24700
C1009       C  0.37456367  0.62023778  0.10456772    -0.23300
C1010       C  0.40830523  0.62878551  0.09640620     0.19600
F1011       F  0.42282577  0.65734551  0.10875991    -0.13200
F1012       F  0.45894666  0.61826864  0.06562416    -0.15600
F1013       F  0.32826286  0.58125703  0.09678709    -0.15600
F1014       F  0.36543245  0.54237391  0.05474419    -0.13200
C1015       C  0.15042968  0.59930376  0.30470809     0.24800
C1016       C  0.16606468  0.62679541  0.32126960    -0.23300
C1017       C  0.15901233  0.63197715  0.35598643     0.19700
C1018       C  0.13606616  0.61105080  0.37316807     0.24700
C1019       C  0.11979691  0.58449993  0.35620267    -0.23300
C1020       C  0.12740000  0.57860268  0.32196300     0.19600
F1021       F  0.11120687  0.55365009  0.30478595    -0.13200
F1022       F  0.15661844  0.59287772  0.27149949    -0.15600
F1023       F  0.12827936  0.61785867  0.40596302    -0.15600
F1024       F  0.17422294  0.65731062  0.37348405    -0.13200
C1025       C  0.39572038  0.86210003  0.37464344     0.24800
C1026       C  0.42475885  0.87798855  0.36195291    -0.23300
C1027       C  0.43626359  0.86995897  0.32935706     0.19700
C1028       C  0.41828313  0.84724233  0.30907977     0.24700
C1029       C  0.38818642  0.83213923  0.32109313    -0.23300
C1030       C  0.37765093  0.83927384  0.35455689     0.19600
F1031       F  0.34957247  0.82462319  0.36788371    -0.13200
F1032       F  0.38377657  0.87022665  0.40584684    -0.15600
F1033       F  0.42998167  0.84090307  0.27737508    -0.15600
F1034       F  0.46388345  0.88582971  0.31642336    -0.13200
C1035       C  0.25541460  0.09572163  0.40859666     0.24800
C1036       C  0.23999984  0.12449448  0.39427285    -0.23300
C1037       C  0.20543192  0.13036338  0.40101777     0.19700
C1038       C  0.18733918  0.10887744  0.42262461     0.24700
C1039       C  0.20323927  0.08110947  0.43776202    -0.23300
C1040       C  0.23717515  0.07431529  0.43012505     0.19600
F1041       F  0.25315865  0.04791559  0.44515421    -0.13200
F1042       F  0.28847464  0.08881073  0.40277791    -0.15600
F1043       F  0.15481577  0.11639602  0.43052786    -0.15600
F1044       F  0.18901286  0.15702918  0.38699411    -0.13200
C1045       C  0.48890909  0.06073830  0.17393484     0.24800
C1046       C  0.49774667  0.07166016  0.14126615    -0.23300
C1047       C  0.48185356  0.10012901  0.12755268     0.19700
C1048       C  0.45815542  0.11818896  0.14659881     0.24700
C1049       C  0.44997485  0.10817624  0.18005091    -0.23300
C1050       C  0.46514071  0.07859267  0.19309151     0.19600
F1051       F  0.45766837  0.06716302  0.22466149    -0.13200
F1052       F  0.50476392  0.03371311  0.18796757    -0.15600
F1053       F  0.44377577  0.14584492  0.13228520    -0.15600
F1054       F  0.49086771  0.11164683  0.09639562    -0.13200
C1055       C  0.20943994  0.33659665  0.17967087     0.24800
C1056       C  0.24412505  0.33110904  0.17303436    -0.23300
C1057       C  0.25949039  0.34942142  0.14643122     0.19700
C1058       C  0.24099019  0.37317346  0.12783557     0.24700
C1059       C  0.20674859  0.37892075  0.13509542    -0.23300
C1060       C  0.19105046  0.36024121  0.16085347     0.19600
F1061       F  0.15828758  0.36629193  0.16902908    -0.13200
F1062       F  0.19310255  0.31921849  0.20446212    -0.15600
F1063       F  0.25687784  0.39177096  0.10361989    -0.15600
F1064       F  0.29267983  0.34517103  0.13893469    -0.13200
C1065       C  0.41363828  0.24359550  0.09726594     0.24800
C1066       C  0.38043325  0.25208577  0.10718336    -0.23300
C1067       C  0.36717876  0.28351588  0.09660622     0.19700
C1068       C  0.38599933  0.30493447  0.07547047     0.24700
C1069       C  0.41855132  0.29573730  0.06487445    -0.23300
C1070       C  0.43236227  0.26519696  0.07634703     0.19600
F1071       F  0.46324976  0.25519872  0.06526913    -0.13200
F1072       F  0.42800922  0.21407858  0.10719753    -0.15600
F1073       F  0.37163456  0.33374868  0.06358850    -0.15600
F1074       F  0.33563239  0.29326884  0.10584672    -0.24400
C1075       C  0.40806285  0.03569451  0.31504880     0.24800
C1076       C  0.37599156  0.04581090  0.32703418    -0.23300
C1077       C  0.36493328  0.03340484  0.35876732     0.19700
C1078       C  0.38491858  0.01093142  0.37736198     0.24700
C1079       C  0.41637823  0.00054897  0.36489745    -0.23300
C1080       C  0.42783415  0.01311343  0.33371325     0.19600
F1081       F  0.45752706  0.00208049  0.32052622    -0.13200
F1082       F  0.42036102  0.04726738  0.28508148    -0.15600
F1083       F  0.37280596  0.99789063  0.40682180    -0.15600
F1084       F  0.33449913  0.04241971  0.37172106    -0.13200
C1085       C  0.99143702  0.31297916  0.31932598     0.24800
C1086       C  0.99606183  0.30675906  0.35405191    -0.23300
C1087       C  0.97558182  0.28283995  0.37040137     0.19700
C1088       C  0.95144943  0.26457791  0.35201475     0.24700
C1089       C  0.94752685  0.26989043  0.31678723    -0.23300
C1090       C  0.96754935  0.29473144  0.30082962     0.19600
F1091       F  0.96490507  0.30071209  0.26706463    -0.13200
F1092       F  0.01146833  0.33566936  0.30296194    -0.15600
F1093       F  0.93204016  0.24167433  0.36881326    -0.15600
F1094       F  0.98019613  0.27588505  0.40377183    -0.13200
C1095       C  0.16030859  0.25761555  0.35184349     0.24800
C1096       C  0.16655164  0.26436669  0.31716253    -0.23300
C1097       C  0.14885310  0.29107347  0.30150052     0.19700
C1098       C  0.12524907  0.30988669  0.31974006     0.24700
C1099       C  0.11888304  0.30267145  0.35396581    -0.23300
C1100       C  0.13669660  0.27666593  0.36998176     0.19600
F1101       F  0.12995557  0.26863113  0.40276422    -0.13200
F1102       F  0.17682155  0.23249074  0.36838294    -0.15600
F1103       F  0.10747196  0.33444442  0.30362581    -0.15600
F1104       F  0.15383648  0.29881040  0.26834969    -0.13200
C1105       C  0.46500327  0.78300029  0.80642038     0.24800
C1106       C  0.45305566  0.75190253  0.81945789    -0.23300
C1107       C  0.46362653  0.74189437  0.85213715     0.19700
C1108       C  0.48589824  0.76206838  0.87081943     0.24700
C1109       C  0.49780052  0.79277114  0.85758836    -0.23300
C1110       C  0.48725297  0.80306435  0.82526897     0.19600
F1111       F  0.50001596  0.83175361  0.81122122    -0.13200
F1112       F  0.45592062  0.79375216  0.77506101    -0.15600
F1113       F  0.49741276  0.75072592  0.90115878    -0.15600
F1114       F  0.45267830  0.71246031  0.86613838    -0.13200
C1115       C  0.62925246  0.76267502  0.86557448     0.24800
C1116       C  0.62039773  0.79636732  0.85892846    -0.23300
C1117       C  0.63561241  0.81340059  0.83175342     0.19700
C1118       C  0.65900571  0.79681181  0.81104078     0.24700
C1119       C  0.66763170  0.76268493  0.81716633    -0.23300
C1120       C  0.65259845  0.74595339  0.84499744     0.19600
F1121       F  0.65959702  0.71304699  0.85183824    -0.13200
F1122       F  0.61380263  0.74541137  0.89103786    -0.15600
F1123       F  0.67289576  0.81422627  0.78484026    -0.15600
F1124       F  0.62629457  0.84554688  0.82411142    -0.13200
C1125       C  0.21306966  0.33943342  0.81627815     0.24800
C1126       C  0.24709405  0.33352270  0.82520897    -0.23300
C1127       C  0.25997923  0.34940907  0.85455369     0.19700
C1128       C  0.23976983  0.37145656  0.87348993     0.24700
C1129       C  0.20629547  0.37785473  0.86378982    -0.23300
C1130       C  0.19303291  0.36139769  0.83534825     0.19600
F1131       F  0.16118525  0.36840426  0.82474808    -0.13200
F1132       F  0.19903516  0.32429991  0.78883284    -0.15600
F1133       F  0.25345865  0.38816971  0.90021825    -0.15600
F1134       F  0.29240534  0.34448130  0.86453034    -0.13200
C1135       C  0.21987563  0.51955239  0.86472720     0.24800
C1136       C  0.19542287  0.49910697  0.84929502    -0.23300
C1137       C  0.19023656  0.50165125  0.81416218     0.19700
C1138       C  0.20968466  0.52389680  0.79461462     0.24700
C1139       C  0.23496588  0.54384391  0.80985936    -0.23300
C1140       C  0.23949617  0.54172289  0.84527737     0.19600
F1141       F  0.26285794  0.56115556  0.86126560    -0.13200
F1142       F  0.22619158  0.51645416  0.89839191    -0.15600
F1143       F  0.20454078  0.52498643  0.76062193    -0.15600
F1144       F  0.16751052  0.48115239  0.79856296    -0.13200
C1145       C  0.64986061  0.13172305  0.84350238     0.24800
C1146       C  0.67011298  0.11309472  0.82100053    -0.23300
C1147       C  0.66568141  0.07774487  0.81901517     0.19700
C1148       C  0.64094451  0.06154789  0.83857399     0.24700
C1149       C  0.62013095  0.08038070  0.86021716    -0.23300
C1150       C  0.62501399  0.11553990  0.86276310     0.19600
F1151       F  0.60483519  0.13437903  0.88316518    -0.13200
F1152       F  0.65342495  0.16578717  0.84616065    -0.15600
F1153       F  0.63620639  0.02770595  0.83516568    -0.15600
F1154       F  0.68559848  0.05873536  0.79852565    -0.13200
C1155       C  0.46421905  0.08269720  0.80619703     0.24800
C1156       C  0.45201556  0.11441399  0.81715185    -0.23300
C1157       C  0.46174074  0.12620150  0.84949895     0.19700
C1158       C  0.48427038  0.10764112  0.86939490     0.24700
C1159       C  0.49714935  0.07679452  0.85773835    -0.23300
C1160       C  0.48658712  0.06419496  0.82633165     0.19600
F1161       F  0.49954998  0.03478537  0.81431865    -0.13200
F1162       F  0.45507181  0.06963465  0.77576401    -0.15600
F1163       F  0.49494897  0.12062366  0.89937340    -0.15600
F1164       F  0.44997826  0.15595737  0.86186209    -0.13200
C1165       C  0.92347716  0.50529224  0.81944389     0.24800
C1166       C  0.91963600  0.50000150  0.85448238    -0.23300
C1167       C  0.89524695  0.51860158  0.87222252     0.19700
C1168       C  0.87462998  0.54177182  0.85513931     0.24700
C1169       C  0.87809929  0.54681168  0.81989345    -0.23300
C1170       C  0.90316138  0.52863281  0.80235161     0.19600
F1171       F  0.90738316  0.53265958  0.76843463    -0.13200
F1172       F  0.94608073  0.48669509  0.80152757    -0.15600
F1173       F  0.85154189  0.55955935  0.87324787    -0.15600
F1174       F  0.89021483  0.51302808  0.90579926    -0.13200
C1175       C  0.88546982  0.37001400  0.87172964     0.24800
C1176       C  0.91858484  0.37722210  0.86132842    -0.23300
C1177       C  0.93212872  0.36033768  0.83327398     0.19700
C1178       C  0.91236067  0.33735321  0.81502687     0.24700
C1179       C  0.87849456  0.33100037  0.82449567    -0.23300
C1180       C  0.86562999  0.34703107  0.85369422     0.19600
F1181       F  0.83351013  0.34135370  0.86439506    -0.13200
F1182       F  0.87167462  0.38692845  0.89826159    -0.15600
F1183       F  0.92644609  0.32157047  0.78798463    -0.15600
F1184       F  0.96392027  0.36753327  0.82246101    -0.13200
C1185       C  0.86175347  0.34932076  0.14341709     0.24800
C1186       C  0.87215183  0.33592718  0.17493197    -0.23300
C1187       C  0.90493611  0.34403136  0.18667554     0.19700
C1188       C  0.92593640  0.36583085  0.16819916     0.24700
C1189       C  0.91488067  0.37995255  0.13760679    -0.23300
C1190       C  0.88283947  0.37128877  0.12517737     0.19600
F1191       F  0.87129342  0.38562122  0.09614077    -0.13200
F1192       F  0.83093191  0.34181819  0.13037856    -0.15600
F1193       F  0.95648839  0.37466841  0.18110609    -0.15600
F1194       F  0.91675818  0.33130098  0.21631711    -0.13200
C1195       C  0.88739067  0.51037334  0.13429875     0.24800
C1196       C  0.92158183  0.50296207  0.13991276    -0.23300
C1197       C  0.93930022  0.52068450  0.16499774     0.19700
C1198       C  0.92261170  0.54447205  0.18529357     0.24700
C1199       C  0.88772540  0.55066484  0.18097233    -0.23300
C1200       C  0.87058746  0.53385109  0.15456227     0.19600
F1201       F  0.83718428  0.53914167  0.14891229    -0.13200
F1202       F  0.86976714  0.49334983  0.11020688    -0.15600
F1203       F  0.94064368  0.56121190  0.20923867    -0.15600
F1204       F  0.97226729  0.51353876  0.17110101    -0.13200
C1205       C  0.65026628  0.77852131  0.19744142     0.24800
C1206       C  0.66621114  0.75186702  0.18006011    -0.23300
C1207       C  0.66283695  0.75016795  0.14444278     0.19700
C1208       C  0.64221636  0.77318838  0.12710827     0.24700
C1209       C  0.62481221  0.79838013  0.14491790    -0.23300
C1210       C  0.63000751  0.80156821  0.18002094     0.19600
F1211       F  0.61320573  0.82559891  0.19787067    -0.13200
F1212       F  0.65298161  0.78155011  0.23159547    -0.15600
F1213       F  0.63727966  0.76934520  0.09329725    -0.15600
F1214       F  0.67907820  0.72598966  0.12630723    -0.13200
C1215       C  0.49809029  0.80235099  0.18220823     0.24800
C1216       C  0.50218733  0.80046289  0.14681826    -0.23300
C1217       C  0.48216009  0.77780786  0.12831923     0.19700
C1218       C  0.45938804  0.75635880  0.14502445     0.24700
C1219       C  0.45617484  0.75727938  0.18064517    -0.23300
C1220       C  0.47549749  0.78088947  0.19897899     0.19600
F1221       F  0.47345683  0.78244410  0.23329306    -0.13200
F1222       F  0.51742156  0.82389038  0.20073072    -0.15600
F1223       F  0.44039523  0.73479795  0.12621730    -0.15600
F1224       F  0.48609364  0.77505262  0.09426342    -0.13200
C1225       C  0.88442825  0.81791377  0.42237773     0.24800
C1226       C  0.91516035  0.80462630  0.43381750    -0.23300
C1227       C  0.92560965  0.77278943  0.42235883     0.19700
C1228       C  0.90485573  0.75359748  0.40118599     0.24700
C1229       C  0.87305707  0.76593844  0.39089061    -0.23300
C1230       C  0.86363762  0.79893447  0.40086913     0.19600
F1231       F  0.83406635  0.81276119  0.39041360    -0.13200
F1232       F  0.87359697  0.84840719  0.43378645    -0.15600
F1233       F  0.91563072  0.72247737  0.39172138    -0.15600
F1234       F  0.95505486  0.75932211  0.43365776    -0.13200
C1235       C  0.90276126  0.81297316  0.57912369     0.24800
C1236       C  0.92390294  0.79581603  0.55651887    -0.23300
C1237       C  0.92750722  0.76056675  0.55942923     0.19700
C1238       C  0.90945488  0.74256957  0.58400521     0.24700
C1239       C  0.88708047  0.75951453  0.60594498    -0.23300
C1240       C  0.88440641  0.79505636  0.60354973     0.19600
F1241       F  0.86418679  0.81267670  0.62496770    -0.13200
F1242       F  0.89849208  0.84692154  0.57633715    -0.15600
F1243       F  0.91326618  0.70848056  0.58564368    -0.15600
F1244       F  0.94764302  0.74343856  0.53750667    -0.13200
C1245       C  0.91622156  0.12830875  0.59972211     0.24800
C1246       C  0.88170469  0.12262090  0.60684729    -0.23300
C1247       C  0.86538031  0.09488952  0.59145684     0.19700
C1248       C  0.88278408  0.07427309  0.56861980     0.24700
C1249       C  0.91684325  0.08070453  0.56092356    -0.23300
C1250       C  0.93353371  0.10751250  0.57698253     0.19600
F1251       F  0.96604138  0.11495712  0.56879999    -0.13200
F1252       F  0.93334101  0.15413385  0.61452306    -0.15600
F1253       F  0.86584347  0.04920365  0.55234581    -0.15600
F1254       F  0.83220227  0.08842227  0.59741158    -0.13200
C1255       C  0.90346193  0.14507152  0.41535352     0.24800
C1256       C  0.87959480  0.12939906  0.39412610    -0.23300
C1257       C  0.87700263  0.09372326  0.39459271     0.19700
C1258       C  0.89692500  0.07443547  0.41666047     0.24700
C1259       C  0.91984933  0.09032376  0.43851843    -0.23300
C1260       C  0.92327762  0.12574122  0.43730634     0.19600
F1261       F  0.94460352  0.14177326  0.45894634    -0.13200
F1262       F  0.90684077  0.17924904  0.41581942    -0.15600
F1263       F  0.89244199  0.04041092  0.41808556    -0.15600
F1264       F  0.85527339  0.07736203  0.37362722    -0.13200
C1265       C  0.22985223  0.81529691  0.56956022     0.24800
C1266       C  0.19751861  0.80354715  0.56096958    -0.23300
C1267       C  0.18484206  0.77438583  0.57668000     0.19700
C1268       C  0.20457278  0.75661935  0.60007147     0.24700
C1269       C  0.23770389  0.76756861  0.60796308    -0.23300
C1270       C  0.24973747  0.79766200  0.59287177     0.19600
F1271       F  0.28108179  0.80974549  0.59987662    -0.13200
F1272       F  0.24294485  0.84287366  0.55369433    -0.15600
F1273       F  0.19123427  0.72839427  0.61448675    -0.15600
F1274       F  0.15404979  0.76202850  0.56788123    -0.13200
C1275       C  0.20812974  0.75734873  0.39666124     0.24800
C1276       C  0.24289360  0.76492144  0.39289379    -0.23300
C1277       C  0.25645187  0.79230410  0.41126852     0.19700
C1278       C  0.23621634  0.81069097  0.43359851     0.24700
C1279       C  0.20201026  0.80236424  0.43802299    -0.23300
C1280       C  0.18796337  0.77591354  0.41909455     0.19600
F1281       F  0.15511756  0.76699545  0.42361466    -0.13200
F1282       F  0.19349129  0.73195424  0.37876353    -0.15600
F1283       F  0.25043150  0.83571456  0.45236325    -0.15600
F1284       F  0.28955759  0.80086980  0.40844373    -0.13200
loop_ 
_geom_bond_atom_site_label_1 
_geom_bond_atom_site_label_2 
_geom_bond_distance 
_geom_bond_site_symmetry_2 
_ccdc_geom_bond_type 
C1            C2   1.405       .  A
C1            C6   1.390       .  A
C1         C1266   1.472       .  S
C2            C3   1.413       .  A
C2            H7   1.083       .  S
C3            C4   1.413       .  A
C3          C621   1.494       .  S
C4            C5   1.406       .  A
C4            H8   1.083       .  S
C5            C6   1.391       .  A
C5         C1279   1.473       .  S
C6            H9   1.086       .  S
C10          C11   1.405       .  A
C10          C15   1.389       .  A
C10        C1249   1.471       .  S
C11          C12   1.413       .  A
C11          H16   1.083       .  S
C12          C13   1.416       .  A
C12         C623   1.498       .  S
C13          C14   1.410       .  A
C13          H17   1.083       .  S
C14          C15   1.390       .  A
C14        C1259   1.477       .  S
C15          H18   1.086       .  S
C19          C20   1.391       .  A
C19          C24   1.405       .  A
C19        C1236   1.473       .  S
C20          C21   1.391       .  A
C20          H25   1.086       .  S
C21          C22   1.404       .  A
C21        C1226   1.470       .  S
C22          C23   1.411       .  A
C22          H26   1.083       .  S
C23          C24   1.411       .  A
C23         C624   1.490       .  S
C24          H27   1.083       .  S
C28          C29   1.407       .  A
C28          C33   1.390       .  A
C28        C1216   1.478       .  S
C29          C30   1.414       .  A
C29          H34   1.083       .  S
C30          C31   1.415       .  A
C30         C655   1.497       .  S
C31          C32   1.408       .  A
C31          H35   1.083       .  S
C32          C33   1.391       .  A
C32        C1209   1.477       .  S
C33          H36   1.086       .  S
C37          C38   1.406       .  A
C37          C42   1.391       .  A
C37        C1189   1.474       .  S
C38          C39   1.413       .  A
C38          H43   1.083       .  S
C39          C40   1.412       .  A
C39         C690   1.493       .  S
C40          C41   1.405       .  A
C40          H44   1.083       .  S
C41          C42   1.393       .  A
C41        C1196   1.474       .  S
C42          H45   1.086       .  S
C46          C47   1.404       .  A
C46          C51   1.391       .  A
C46        C1176   1.469       .  S
C47          C48   1.411       .  A
C47          H52   1.083       .  S
C48          C49   1.415       .  A
C48         C691   1.496       .  S
C49          C50   1.410       .  A
C49          H53   1.083       .  S
C50          C51   1.391       .  A
C50        C1166   1.478       .  S
C51          H54   1.086       .  S
C55          C56   1.392       .  A
C55          C60   1.408       .  A
C55        C1149   1.476       .  S
C56          C57   1.391       .  A
C56          H61   1.086       .  S
C57          C58   1.404       .  A
C57        C1159   1.469       .  S
C58          C59   1.411       .  A
C58          H62   1.083       .  S
C59          C60   1.412       .  A
C59         C657   1.493   1_545  S
C60          H63   1.083       .  S
C64          C65   1.389       .  A
C64          C69   1.406       .  A
C64        C1129   1.471       .  S
C65          C66   1.390       .  A
C65          H70   1.086       .  S
C66          C67   1.406       .  A
C66        C1136   1.472       .  S
C67          C68   1.413       .  A
C67          H71   1.083       .  S
C68          C69   1.414       .  A
C68         C692   1.495       .  S
C69          H72   1.083       .  S
C73          C74   1.390       .  A
C73          C78   1.408       .  A
C73        C1109   1.472       .  S
C74          C75   1.390       .  A
C74          H79   1.086       .  S
C75          C76   1.405       .  A
C75        C1116   1.471       .  S
C76          C77   1.412       .  A
C76          H80   1.083       .  S
C77          C78   1.414       .  A
C77         C658   1.495       .  S
C78          H81   1.083       .  S
C82          C83   1.403       .  A
C82          C87   1.390       .  A
C82        C1099   1.469       .  S
C83          C84   1.409       .  A
C83          H88   1.083       .  S
C84          C85   1.412       .  A
C84         C760   1.490       .  S
C85          C86   1.406       .  A
C85          H89   1.083       .  S
C86          C87   1.392       .  A
C86        C1086   1.473   1_455  S
C87          H90   1.086       .  S
O91         Mg93   2.146       .  S
O91         Mg99   2.142       .  S
O91         C126   1.235       .  S
C92         H131   1.081       .  S
C92         O105   1.234       .  S
C92         O129   1.270       .  A
Mg93        O122   2.157       .  S
Mg93        O137   2.293       .  S
Mg93        O133   2.253       .  S
Mg93        O104   2.308       .  S
O94        Mg136   2.151       .  S
O94        Mg119   2.157       .  S
O94         C115   1.235       .  S
O95         C126   1.271       .  A
O95        Mg119   2.315       .  S
C96        C1036   1.486       .  S
C96          O98   1.267       .  A
C96         O110   1.268       .  A
O97         C125   1.271       .  A
O97         Mg99   2.311       .  S
O98        Mg130   2.258       .  S
Mg99        O105   2.169       .  S
Mg99        O113   2.266       .  S
Mg99        O101   2.276       .  S
C100       C1076   1.490       .  S
C100        O138   1.268       .  A
C100        O106   1.271       .  A
O101        C108   1.268       .  A
H102        C115   1.081       .  S
C103        H128   1.081       .  S
C103        O117   1.235       .  S
C103        O118   1.272       .  A
O104        C127   1.269       .  A
O105       Mg119   2.154       .  S
O106       Mg136   2.290       .  S
C107       C1049   1.493       .  S
C107        O120   1.269       .  A
C107        O112   1.272       .  A
C108       C1066   1.490       .  S
C108        O135   1.268       .  A
Mg109       O116   2.159       .  S
Mg109       O117   2.140       .  S
Mg109       O110   2.278       .  S
Mg109       O111   2.318       .  S
Mg109       O138   2.256       .  S
O111        C115   1.272       .  A
O112       Mg119   2.295       .  S
O113        C132   1.270       .  A
O114        C134   1.271       .  A
O114       Mg130   2.289       .  S
O116       Mg130   2.151       .  S
O116        C127   1.233       .  S
O117       Mg136   2.157       .  S
O118       Mg130   2.320       .  S
Mg119       O135   2.263       .  S
O120       Mg136   2.266       .  S
H121        C126   1.081       .  S
O122       Mg130   2.153       .  S
O122        C125   1.235       .  S
H123        C125   1.081       .  S
H124        C127   1.081       .  S
O129       Mg136   2.313       .  S
C132       C1056   1.491       .  S
C132        O137   1.272       .  A
O133        C134   1.269       .  A
C134       C1096   1.488       .  S
C139        C140   1.406       .  A
C139        C144   1.390       .  A
C139       C1079   1.471   1_565  S
C140        C141   1.412       .  A
C140        H145   1.083       .  S
C141        C142   1.411       .  A
C141        C794   1.491       .  S
C142        C143   1.404       .  A
C142        H146   1.083       .  S
C143        C144   1.391       .  A
C143       C1026   1.469       .  S
C144        H147   1.086       .  S
O148       Mg150   2.148       .  S
O148       Mg156   2.151       .  S
O148        C183   1.235       .  S
C149        H188   1.081       .  S
C149        O162   1.235       .  S
C149        O186   1.271       .  A
Mg150       O179   2.153       .  S
Mg150       O194   2.284       .  S
Mg150       O190   2.252       .  S
Mg150       O161   2.310       .  S
O151       Mg193   2.148       .  S
O151       Mg176   2.166       .  S
O151        C172   1.235       .  S
O152        C183   1.271       .  A
O152       Mg176   2.312       .  S
C153       C1219   1.482       .  S
C153        O155   1.268       .  A
C153        O167   1.270       .  A
O154        C182   1.270       .  A
O154       Mg156   2.308       .  S
O155       Mg187   2.260       .  S
Mg156       O162   2.150       .  S
Mg156       O170   2.253       .  S
Mg156       O158   2.286       .  S
C157       C1029   1.489       .  S
C157        O195   1.267       .  A
C157        O163   1.271       .  A
O158        C165   1.270       .  A
H159        C172   1.081       .  S
C160        H185   1.081       .  S
C160        O174   1.235       .  S
C160        O175   1.272       .  A
O161        C184   1.270       .  A
O162       Mg176   2.142       .  S
O163       Mg193   2.290       .  S
C164       C1276   1.488       .  S
C164        O177   1.269       .  A
C164        O169   1.269       .  A
C165       C1016   1.490       .  S
C165        O192   1.269       .  A
Mg166       O173   2.152       .  S
Mg166       O174   2.141       .  S
Mg166       O167   2.286       .  S
Mg166       O168   2.319       .  S
Mg166       O195   2.254       .  S
O168        C172   1.273       .  A
O169       Mg176   2.281       .  S
O170        C189   1.268       .  A
O171        C191   1.272       .  A
O171       Mg187   2.295       .  S
O173       Mg187   2.146       .  S
O173        C184   1.234       .  S
O174       Mg193   2.155       .  S
O175       Mg187   2.319       .  S
Mg176       O192   2.268       .  S
O177       Mg193   2.263       .  S
H178        C183   1.081       .  S
O179       Mg187   2.154       .  S
O179        C182   1.234       .  S
H180        C182   1.081       .  S
H181        C184   1.081       .  S
O186       Mg193   2.313       .  S
C189        C999   1.488       .  S
C189        O194   1.271       .  A
O190        C191   1.268       .  A
C191       C1009   1.491       .  S
O196       Mg198   2.170       .  S
O196       Mg204   2.155       .  S
O196        C231   1.235       .  S
C197        H236   1.081       .  S
C197        O210   1.234       .  S
C197        O234   1.270       .  A
Mg198       O227   2.140       .  S
Mg198       O242   2.283       .  S
Mg198       O238   2.279       .  S
Mg198       O209   2.318       .  S
O199       Mg241   2.149       .  S
O199       Mg224   2.148       .  S
O199        C220   1.235       .  S
O200        C231   1.272       .  A
O200       Mg224   2.319       .  S
C201       C1089   1.485       .  S
C201        O203   1.269       .  A
C201        O215   1.270       .  A
O202        C230   1.270       .  A
O202       Mg204   2.312       .  S
O203       Mg235   2.254       .  S
Mg204       O210   2.158       .  S
Mg204       O218   2.254       .  S
Mg204       O206   2.286       .  S
C205       C1256   1.486       .  S
C205        O243   1.269       .  A
C205        O211   1.269       .  A
O206        C213   1.270       .  A
H207        C220   1.081       .  S
C208        H233   1.081       .  S
C208        O222   1.235       .  S
C208        O223   1.271       .  A
O209        C232   1.272       .  A
O210       Mg224   2.146       .  S
O211       Mg241   2.281       .  S
C212        C986   1.488       .  S
C212        O225   1.268       .  A
C212        O217   1.271       .  A
C213        C966   1.485       .  S
C213        O240   1.267       .  A
Mg214       O221   2.160       .  S
Mg214       O222   2.148       .  S
Mg214       O215   2.285       .  S
Mg214       O216   2.313       .  S
Mg214       O243   2.262       .  S
O216        C220   1.271       .  A
O217       Mg224   2.290       .  S
O218        C237   1.267       .  A
O219        C239   1.271       .  A
O219       Mg235   2.290       .  S
O221       Mg235   2.148       .  S
O221        C232   1.235       .  S
O222       Mg241   2.157       .  S
O223       Mg235   2.310       .  S
Mg224       O240   2.251       .  S
O225       Mg241   2.255       .  S
H226        C231   1.081       .  S
O227       Mg235   2.149       .  S
O227        C230   1.234       .  S
H228        C230   1.081       .  S
H229        C232   1.081       .  S
O234       Mg241   2.312       .  S
C237        C979   1.486       .  S
C237        O242   1.270       .  A
O238        C239   1.270       .  A
C239       C1186   1.495       .  S
C244        C245   1.405       .  A
C244        C249   1.391       .  A
C244        C989   1.471   1_565  S
C245        C246   1.410       .  A
C245        H250   1.083       .  S
C246        C247   1.411       .  A
C246        C791   1.491       .  S
C247        C248   1.405       .  A
C247        H251   1.083       .  S
C248        C249   1.391       .  A
C248        C959   1.472       .  S
C249        H252   1.086       .  S
O253       Mg255   2.162       .  S
O253       Mg261   2.152       .  S
O253        C288   1.235       .  S
C254        H293   1.081       .  S
C254        O267   1.236       .  S
C254        O291   1.273       .  A
Mg255       O284   2.145       .  S
Mg255       O299   2.277       .  S
Mg255       O295   2.273       .  S
Mg255       O266   2.321       .  S
O256       Mg298   2.144       .  S
O256       Mg281   2.159       .  S
O256        C277   1.234       .  S
O257        C288   1.272       .  A
O257       Mg281   2.320       .  S
C258        C956   1.485       .  S
C258        O260   1.268       .  A
C258        O272   1.270       .  A
O259        C287   1.271       .  A
O259       Mg261   2.313       .  S
O260       Mg292   2.259       .  S
Mg261       O267   2.156       .  S
Mg261       O275   2.259       .  S
Mg261       O263   2.284       .  S
C262       C1229   1.489       .  S
C262        O300   1.267       .  A
C262        O268   1.269       .  A
O263        C270   1.270       .  A
H264        C277   1.081       .  S
C265        H290   1.081       .  S
C265        O279   1.235       .  S
C265        O280   1.271       .  A
O266        C289   1.273       .  A
O267       Mg281   2.142       .  S
O268       Mg298   2.279       .  S
C269        C946   1.493       .  S
C269        O282   1.268       .  A
C269        O274   1.270       .  A
C270       C1199   1.488       .  S
C270        O297   1.269       .  A
Mg271       O278   2.149       .  S
Mg271       O279   2.151       .  S
Mg271       O272   2.283       .  S
Mg271       O273   2.320       .  S
Mg271       O300   2.262       .  S
O273        C277   1.272       .  A
O274       Mg281   2.284       .  S
O275        C294   1.268       .  A
O276        C296   1.267       .  A
O276       Mg292   2.268       .  S
O278       Mg292   2.145       .  S
O278        C289   1.236       .  S
O279       Mg298   2.163       .  S
O280       Mg292   2.313       .  S
Mg281       O297   2.274       .  S
O282       Mg298   2.268       .  S
H283        C288   1.081       .  S
O284       Mg292   2.157       .  S
O284        C287   1.234       .  S
H285        C287   1.081       .  S
H286        C289   1.081       .  S
O291       Mg298   2.319       .  S
C294        C936   1.480       .  S
C294        O299   1.269       .  A
O295        C296   1.267       .  A
C296       C1206   1.487       .  S
C301        C302   1.392       .  A
C301        C306   1.409       .  A
C301       C1019   1.477       .  S
C302        C303   1.392       .  A
C302        H307   1.086       .  S
C303        C304   1.406       .  A
C303        C949   1.474   1_455  S
C304        C305   1.413       .  A
C304        H308   1.083       .  S
C305        C306   1.415       .  A
C305        C757   1.498       .  S
C306        H309   1.083       .  S
C310        C311   1.408       .  A
C310        C315   1.390       .  A
C310       C1069   1.473       .  S
C311        C312   1.415       .  A
C311        H316   1.083       .  S
C312        C313   1.411   1_554  A
C312        C726   1.495       .  S
C313        C314   1.404       .  A
C313        H317   1.083       .  S
C314        C315   1.390   1_556  A
C314        C926   1.470       .  S
C315        H318   1.086       .  S
O319       Mg321   2.169       .  S
O319       Mg327   2.152       .  S
O319        C354   1.235       .  S
C320        H359   1.081       .  S
C320        O333   1.235       .  S
C320        O357   1.271       .  A
Mg321       O350   2.145       .  S
Mg321       O365   2.284       .  S
Mg321       O361   2.277       .  S
Mg321       O332   2.312       .  S
O322       Mg364   2.146       .  S
O322       Mg347   2.149       .  S
O322        C343   1.235       .  S
O323        C354   1.272       .  A
O323       Mg347   2.318       .  S
C324        C916   1.483       .  S
C324        O326   1.268       .  A
C324        O338   1.269       .  A
O325        C353   1.271       .  A
O325       Mg327   2.313       .  S
O326       Mg358   2.256       .  S
Mg327       O333   2.157       .  S
Mg327       O341   2.261       .  S
Mg327       O329   2.296       .  S
C328       C1156   1.488       .  S
C328        O366   1.267       .  A
C328        O334   1.269       .  A
O329        C336   1.272       .  A
H330        C343   1.081       .  S
C331        H356   1.081       .  S
C331        O345   1.235       .  S
C331        O346   1.271       .  A
O332        C355   1.270       .  A
O333       Mg347   2.147       .  S
O334       Mg364   2.282       .  S
C335        C929   1.487       .  S
C335        O348   1.268       .  A
C335        O340   1.270       .  A
C336       C1126   1.491       .  S
C336        O363   1.267       .  A
Mg337       O344   2.153       .  S
Mg337       O345   2.145       .  S
Mg337       O338   2.281       .  S
Mg337       O339   2.315       .  S
Mg337       O366   2.254       .  S
O339        C343   1.271       .  A
O340       Mg347   2.289       .  S
O341        C360   1.269       .  A
O342        C362   1.271       .  A
O342       Mg358   2.289       .  S
O344       Mg358   2.149       .  S
O344        C355   1.234       .  S
O345       Mg364   2.152       .  S
O346       Mg358   2.311       .  S
Mg347       O363   2.256       .  S
O348       Mg364   2.254       .  S
H349        C354   1.081       .  S
O350       Mg358   2.152       .  S
O350        C353   1.235       .  S
H351        C353   1.081       .  S
H352        C355   1.081       .  S
O357       Mg364   2.313       .  S
C360        C906   1.486       .  S
C360        O365   1.270       .  A
O361        C362   1.270       .  A
C362        C896   1.494       .  S
C367        C368   1.390       .  A
C367        C372   1.405       .  A
C367        C919   1.471       .  S
C368        C369   1.389       .  A
C368        H373   1.086       .  S
C369        C370   1.403       .  A
C369        C886   1.465       .  S
C370        C371   1.410       .  A
C370        H374   1.083       .  S
C371        C372   1.412       .  A
C371        C793   1.489       .  S
C372        H375   1.083       .  S
O376       Mg378   2.156       .  S
O376       Mg384   2.148       .  S
O376        C411   1.234       .  S
C377        H416   1.081       .  S
C377        O390   1.233       .  S
C377        O414   1.269       .  A
Mg378       O407   2.150       .  S
Mg378       O422   2.286       .  S
Mg378       O418   2.267       .  S
Mg378       O389   2.312       .  S
O379       Mg421   2.155       .  S
O379       Mg404   2.151       .  S
O379        C400   1.235       .  S
O380        C411   1.270       .  A
O380       Mg404   2.313       .  S
C381        C876   1.487       .  S
C381        O383   1.267       .  A
C381        O395   1.266       .  A
O382        C410   1.272       .  A
O382       Mg384   2.315       .  S
O383       Mg415   2.267       .  S
Mg384       O390   2.146       .  S
Mg384       O398   2.227       .  S
Mg384       O386   2.284       .  S
C385       C1139   1.483       .  S
C385        O423   1.267       .  A
C385        O391   1.271       .  A
O386        C393   1.269       .  A
H387        C400   1.081       .  S
C388        H413   1.081       .  S
C388        O402   1.235       .  S
C388        O403   1.272       .  A
O389        C412   1.270       .  A
O390       Mg404   2.151       .  S
O391       Mg421   2.287       .  S
C392        C869   1.481       .  S
C392        O405   1.269       .  A
C392        O397   1.270       .  A
C393       C1106   1.490       .  S
C393        O420   1.268       .  A
Mg394       O401   2.155       .  S
Mg394       O402   2.140       .  S
Mg394       O395   2.269       .  S
Mg394       O396   2.313       .  S
Mg394       O423   2.247       .  S
O396        C400   1.272       .  A
O397       Mg404   2.280       .  S
O398        C417   1.265       .  A
O399        C419   1.271       .  A
O399       Mg415   2.287       .  S
O401       Mg415   2.146       .  S
O401        C412   1.233       .  S
O402       Mg421   2.147       .  S
O403       Mg415   2.319       .  S
Mg404       O420   2.260       .  S
O405       Mg421   2.246       .  S
H406        C411   1.081       .  S
O407       Mg415   2.154       .  S
O407        C410   1.235       .  S
H408        C410   1.081       .  S
H409        C412   1.081       .  S
O414       Mg421   2.305       .  S
C417        C889   1.482       .  S
C417        O422   1.271       .  A
O418        C419   1.270       .  A
C419       C1269   1.491       .  S
C424        C425   1.403       .  A
C424        C429   1.392       .  A
C424        C879   1.471       .  S
C425        C426   1.410       .  A
C425        H430   1.083       .  S
C426        C427   1.412       .  A
C426        C758   1.491       .  S
C427        C428   1.406       .  A
C427        H431   1.083       .  S
C428        C429   1.392       .  A
C428        C859   1.472   1_455  S
C429        H432   1.086       .  S
C433        C434   1.407       .  A
C433        C438   1.391       .  A
C433        C909   1.475       .  S
C434        C435   1.413       .  A
C434        H439   1.083       .  S
C435        C436   1.412       .  A
C435        C759   1.495       .  S
C436        C437   1.404       .  A
C436        H440   1.083       .  S
C437        C438   1.390       .  A
C437        C846   1.470   1_455  S
C438        H441   1.086       .  S
O442       Mg444   2.145       .  S
O442       Mg450   2.146       .  S
O442        C477   1.233       .  S
C443        H482   1.081       .  S
C443        O456   1.236       .  S
C443        O480   1.272       .  A
Mg444       O473   2.137       .  S
Mg444       O488   2.283       .  S
Mg444       O484   2.245       .  S
Mg444       O455   2.318       .  S
O445       Mg487   2.142       .  S
O445       Mg470   2.151       .  S
O445        C466   1.234       .  S
O446        C477   1.269       .  A
O446       Mg470   2.308       .  S
C447       C1146   1.478       .  S
C447        O449   1.268       .  A
C447        O461   1.271       .  A
O448        C476   1.271       .  A
O448       Mg450   2.313       .  S
O449       Mg481   2.252       .  S
Mg450       O456   2.154       .  S
Mg450       O464   2.259       .  S
Mg450       O452   2.283       .  S
C451        C826   1.490       .  S
C451        O489   1.268       .  A
C451        O457   1.268       .  A
O452        C459   1.270       .  A
H453        C466   1.081       .  S
C454        H479   1.081       .  S
C454        O468   1.234       .  S
C454        O469   1.270       .  A
O455        C478   1.273       .  A
O456       Mg470   2.150       .  S
O457       Mg487   2.281       .  S
C458       C1179   1.486       .  S
C458        O471   1.266       .  A
C458        O463   1.270       .  A
C459        C849   1.487       .  S
C459        O486   1.269       .  A
Mg460       O467   2.155       .  S
Mg460       O468   2.147       .  S
Mg460       O461   2.285       .  S
Mg460       O462   2.316       .  S
Mg460       O489   2.270       .  S
O462        C466   1.271       .  A
O463       Mg470   2.284       .  S
O464        C483   1.268       .  A
O465        C485   1.269       .  A
O465       Mg481   2.282       .  S
O467       Mg481   2.149       .  S
O467        C478   1.236       .  S
O468       Mg487   2.153       .  S
O469       Mg481   2.311       .  S
Mg470       O486   2.251       .  S
O471       Mg487   2.243       .  S
H472        C477   1.081       .  S
O473       Mg481   2.150       .  S
O473        C476   1.234       .  S
H474        C476   1.081       .  S
H475        C478   1.081       .  S
O480       Mg487   2.315       .  S
C483       C1246   1.485       .  S
C483        O488   1.269       .  A
O484        C485   1.266       .  A
C485        C836   1.486       .  S
C490        C491   1.405       .  A
C490        C495   1.389       .  A
C490        C839   1.468   1_565  S
C491        C492   1.412       .  A
C491        H496   1.083       .  S
C492        C493   1.411       .  A
C492        C792   1.490       .  S
C493        C494   1.404       .  A
C493        H497   1.083       .  S
C494        C495   1.390       .  A
C494        C816   1.469       .  S
C495        H498   1.086       .  S
O499       Mg501   2.162       .  S
O499       Mg507   2.149       .  S
O499        C534   1.233       .  S
C500        H539   1.081       .  S
C500        O513   1.235       .  S
C500        O537   1.271       .  A
Mg501       O530   2.136       .  S
Mg501       O545   2.272       .  S
Mg501       O541   2.264       .  S
Mg501       O512   2.316       .  S
O502       Mg544   2.143       .  S
O502       Mg527   2.144       .  S
O502        C523   1.233       .  S
O503        C534   1.270       .  A
O503       Mg527   2.310       .  S
C504        C806   1.486       .  S
C504        O506   1.267       .  A
C504        O518   1.272       .  A
O505        C533   1.272       .  A
O505       Mg507   2.321       .  S
O506       Mg538   2.239       .  S
Mg507       O513   2.152       .  S
Mg507       O521   2.265       .  S
Mg507       O509   2.295       .  S
C508       C1169   1.484       .  S
C508        O546   1.270       .  A
C508        O514   1.270       .  A
O509        C516   1.273       .  A
H510        C523   1.081       .  S
C511        H536   1.081       .  S
C511        O525   1.233       .  S
C511        O526   1.269       .  A
O512        C535   1.272       .  A
O513       Mg527   2.157       .  S
O514       Mg544   2.286       .  S
C515        C856   1.489       .  S
C515        O528   1.267       .  A
C515        O520   1.271       .  A
C516       C1239   1.483       .  S
C516        O543   1.268       .  A
Mg517       O524   2.158       .  S
Mg517       O525   2.153       .  S
Mg517       O518   2.289       .  S
Mg517       O519   2.307       .  S
Mg517       O546   2.267       .  S
O519        C523   1.269       .  A
O520       Mg527   2.290       .  S
O521        C540   1.268       .  A
O522        C542   1.270       .  A
O522       Mg538   2.287       .  S
O524       Mg538   2.151       .  S
O524        C535   1.235       .  S
O525       Mg544   2.152       .  S
O526       Mg538   2.307       .  S
Mg527       O543   2.242       .  S
O528       Mg544   2.243       .  S
H529        C534   1.081       .  S
O530       Mg538   2.147       .  S
O530        C533   1.235       .  S
H531        C533   1.081       .  S
H532        C535   1.081       .  S
O537       Mg544   2.313       .  S
C540        C819   1.482       .  S
C540        O545   1.267       .  A
O541        C542   1.268       .  A
C542       C1119   1.489       .  S
C547        C548   1.389   1_554  A
C547        C552   1.408       .  A
C547       C1006   1.474       .  S
C548        C549   1.390       .  A
C548        H553   1.086       .  S
C549        C550   1.406       .  A
C549        C866   1.473       .  S
C550        C551   1.412   1_556  A
C550        H554   1.083       .  S
C551        C552   1.415       .  A
C551        C725   1.496       .  S
C552        H555   1.083       .  S
C556        C557   1.402       .  A
C556        C561   1.390   1_554  A
C556        C976   1.467       .  S
C557        C558   1.409   1_554  A
C557        H562   1.084       .  S
C558        C559   1.416       .  A
C558        C723   1.495       .  S
C559        C560   1.410       .  A
C559        H563   1.083       .  S
C560        C561   1.392       .  A
C560        C829   1.476       .  S
C561        H564   1.086       .  S
C565        C566   1.409       .  A
C565        C570   1.393   1_554  A
C565        C939   1.479       .  S
C566        C567   1.414   1_554  A
C566        H571   1.083       .  S
C567        C568   1.411       .  A
C567        C724   1.494       .  S
C568        C569   1.403       .  A
C568        H572   1.083       .  S
C569        C570   1.391       .  A
C569        C809   1.471       .  S
C570        H573   1.086       .  S
C574        C575   1.390       .  A
C574        C579   1.404       .  A
C574       C1046   1.472       .  S
C575        C576   1.393       .  A
C575        H580   1.086       .  S
C576        C577   1.406       .  A
C576        C969   1.475       .  S
C577        C578   1.413       .  A
C577        H581   1.083       .  S
C578        C579   1.412       .  A
C578        C656   1.491   1_545  S
C579        H582   1.083       .  S
C583        C584   1.407       .  A
C583        C588   1.392       .  A
C583       C1059   1.474       .  S
C584        C585   1.413       .  A
C584        H589   1.083       .  S
C585        C586   1.412       .  A
C585        C689   1.496       .  S
C586        C587   1.406       .  A
C586        H590   1.083       .  S
C587        C588   1.391       .  A
C587        C996   1.471       .  S
C588        H591   1.086       .  S
C592        C593   1.390       .  A
C592        C597   1.408       .  A
C592        C899   1.475       .  S
C593        C594   1.391       .  A
C593        H598   1.086       .  S
C594        C595   1.404       .  A
C594       C1039   1.470       .  S
C595        C596   1.411       .  A
C595        H599   1.083       .  S
C596        C597   1.415       .  A
C596        C622   1.495       .  S
C597        H600   1.083       .  S
N601        C606   1.357       .  A
N601        C605   1.357       .  A
N601        H633   1.035       .  S
N602        C609   1.354       .  A
N602        C610   1.353       .  A
N603        C608   1.357   1_455  A
N603        C607   1.356   1_455  A
N603        H634   1.037       .  S
N604        C611   1.355   1_565  A
N604        C612   1.356   1_565  A
C605        C613   1.387       .  A
C605        C621   1.422       .  A
C606        C622   1.423   1_565  A
C606        C614   1.388       .  A
C607        C615   1.386       .  A
C607        C624   1.419       .  A
C608        C623   1.423   1_565  A
C608        C616   1.388       .  A
C609        C621   1.417       .  A
C609        C617   1.386       .  A
C610        C624   1.417   1_455  A
C610        C618   1.387       .  A
C611        C619   1.387       .  A
C611        C622   1.421       .  A
C612        C620   1.386       .  A
C612        C623   1.421   1_455  A
C613        C614   1.377       .  A
C613        H625   1.082       .  S
C614        H626   1.082       .  S
C615        C616   1.377       .  A
C615        H627   1.082       .  S
C616        H628   1.082       .  S
C617        C618   1.374       .  A
C617        H629   1.082       .  S
C618        H630   1.082       .  S
C619        C620   1.376       .  A
C619        H631   1.082       .  S
C620        H632   1.082       .  S
N635        C640   1.356       .  A
N635        C639   1.356       .  A
N635        H667   1.035       .  S
N636        C643   1.356   1_556  A
N636        C644   1.355       .  A
N637        C642   1.358       .  A
N637        C641   1.356       .  A
N637        H668   1.035       .  S
N638        C645   1.355   1_566  A
N638        C646   1.354   1_565  A
C639        C647   1.388       .  A
C639        C655   1.423       .  A
C640        C656   1.421       .  A
C640        C648   1.387       .  A
C641        C649   1.389       .  A
C641        C658   1.425       .  A
C642        C657   1.423       .  A
C642        C650   1.387       .  A
C643        C655   1.422       .  A
C643        C651   1.386       .  A
C644        C658   1.423       .  A
C644        C652   1.387       .  A
C645        C653   1.386       .  A
C645        C656   1.419   1_545  A
C646        C654   1.387       .  A
C646        C657   1.419   1_545  A
C647        C648   1.376       .  A
C647        H659   1.082       .  S
C648        H660   1.082       .  S
C649        C650   1.377       .  A
C649        H661   1.082       .  S
C650        H662   1.082       .  S
C651        C652   1.376   1_554  A
C651        H663   1.082       .  S
C652        H664   1.082       .  S
C653        C654   1.373   1_554  A
C653        H665   1.082       .  S
C654        H666   1.082       .  S
N669        C674   1.356       .  A
N669        C673   1.357       .  A
N669        H701   1.035       .  S
N670        C677   1.355   1_556  A
N670        C678   1.355       .  A
N671        C676   1.357       .  A
N671        C675   1.357       .  A
N671        H702   1.035       .  S
N672        C679   1.355   1_456  A
N672        C680   1.356   1_455  A
C673        C681   1.387       .  A
C673        C689   1.422       .  A
C674        C690   1.422   1_455  A
C674        C682   1.388       .  A
C675        C683   1.387       .  A
C675        C692   1.423       .  A
C676        C691   1.423   1_455  A
C676        C684   1.387       .  A
C677        C689   1.421       .  A
C677        C685   1.387       .  A
C678        C692   1.420       .  A
C678        C686   1.387       .  A
C679        C687   1.387       .  A
C679        C690   1.422       .  A
C680        C688   1.386       .  A
C680        C691   1.421       .  A
C681        C682   1.377       .  A
C681        H693   1.082       .  S
C682        H694   1.082       .  S
C683        C684   1.377       .  A
C683        H695   1.082       .  S
C684        H696   1.082       .  S
C685        C686   1.374   1_554  A
C685        H697   1.082       .  S
C686        H698   1.082       .  S
C687        C688   1.374   1_554  A
C687        H699   1.082       .  S
C688        H700   1.082       .  S
N703        C708   1.358   1_556  A
N703        C707   1.358       .  A
N703        H735   1.036       .  S
N704        C711   1.355       .  A
N704        C712   1.355   1_556  A
N705        C710   1.359       .  A
N705        C709   1.358       .  A
N705        H736   1.035       .  S
N706        C713   1.354   1_554  A
N706        C714   1.354       .  A
C707        C715   1.387   1_556  A
C707        C723   1.424       .  A
C708        C724   1.424   1_554  A
C708        C716   1.388       .  A
C709        C717   1.387   1_554  A
C709        C726   1.424       .  A
C710        C725   1.425       .  A
C710        C718   1.388   1_554  A
C711        C723   1.421       .  A
C711        C719   1.387       .  A
C712        C726   1.421       .  A
C712        C720   1.387       .  A
C713        C721   1.387       .  A
C713        C724   1.421       .  A
C714        C722   1.387       .  A
C714        C725   1.421       .  A
C715        C716   1.375       .  A
C715        H727   1.082       .  S
C716        H728   1.082       .  S
C717        C718   1.375       .  A
C717        H729   1.082       .  S
C718        H730   1.082       .  S
C719        C720   1.373   1_556  A
C719        H731   1.082       .  S
C720        H732   1.082       .  S
C721        C722   1.374   1_556  A
C721        H733   1.082       .  S
C722        H734   1.082       .  S
N737        C742   1.357       .  A
N737        C741   1.359       .  A
N737        H769   1.034       .  S
N738        C745   1.355       .  A
N738        C746   1.354       .  A
N739        C744   1.358       .  A
N739        C743   1.356       .  A
N739        H770   1.035       .  S
N740        C747   1.353       .  A
N740        C748   1.355       .  A
C741        C749   1.387       .  A
C741        C757   1.425       .  A
C742        C758   1.424       .  A
C742        C750   1.388       .  A
C743        C751   1.388       .  A
C743        C760   1.423       .  A
C744        C759   1.422       .  A
C744        C752   1.387       .  A
C745        C757   1.422       .  A
C745        C753   1.386       .  A
C746        C760   1.422       .  A
C746        C754   1.388       .  A
C747        C755   1.388       .  A
C747        C758   1.422       .  A
C748        C756   1.386       .  A
C748        C759   1.420       .  A
C749        C750   1.376       .  A
C749        H761   1.082       .  S
C750        H762   1.082       .  S
C751        C752   1.375       .  A
C751        H763   1.082       .  S
C752        H764   1.082       .  S
C753        C754   1.374       .  A
C753        H765   1.082       .  S
C754        H766   1.082       .  S
C755        C756   1.372       .  A
C755        H767   1.082       .  S
C756        H768   1.082       .  S
N771        C776   1.355       .  A
N771        C775   1.355       .  A
N771        H803   1.037       .  S
N772        C779   1.354       .  A
N772        C780   1.355       .  A
N773        C778   1.355       .  A
N773        C777   1.355       .  A
N773        H804   1.037       .  S
N774        C781   1.354       .  A
N774        C782   1.354       .  A
C775        C783   1.387       .  A
C775        C791   1.422       .  A
C776        C792   1.422       .  A
C776        C784   1.388       .  A
C777        C785   1.388       .  A
C777        C794   1.421       .  A
C778        C793   1.421       .  A
C778        C786   1.387       .  A
C779        C791   1.421       .  A
C779        C787   1.387       .  A
C780        C794   1.419       .  A
C780        C788   1.386       .  A
C781        C789   1.387       .  A
C781        C792   1.420       .  A
C782        C790   1.387       .  A
C782        C793   1.419       .  A
C783        C784   1.377       .  A
C783        H795   1.082       .  S
C784        H796   1.082       .  S
C785        C786   1.376       .  A
C785        H797   1.082       .  S
C786        H798   1.082       .  S
C787        C788   1.373       .  A
C787        H799   1.082       .  S
C788        H800   1.082       .  S
C789        C790   1.373       .  A
C789        H801   1.082       .  S
C790        H802   1.082       .  S
C805        C806   1.414       .  A
C805        C810   1.400       .  A
C805        F812   1.358       .  S
C806        C807   1.411       .  A
C807        C808   1.396       .  A
C807        F814   1.358       .  S
C808        C809   1.403       .  A
C808        F813   1.358       .  S
C809        C810   1.401       .  A
C810        F811   1.358       .  S
C815        C816   1.401       .  A
C815        C820   1.398       .  A
C815        F822   1.358       .  S
C816        C817   1.404       .  A
C817        C818   1.396       .  A
C817        F824   1.358       .  S
C818        C819   1.409       .  A
C818        F823   1.357       .  S
C819        C820   1.412       .  A
C820        F821   1.358       .  S
C825        C826   1.412       .  A
C825        C830   1.399       .  A
C825        F832   1.357       .  S
C826        C827   1.412       .  A
C827        C828   1.402       .  A
C827        F834   1.358       .  S
C828        C829   1.406       .  A
C828        F833   1.358       .  S
C829        C830   1.401       .  A
C830        F831   1.358       .  S
C835        C836   1.413       .  A
C835        C840   1.398       .  A
C835        F842   1.358       .  S
C836        C837   1.412       .  A
C837        C838   1.397       .  A
C837        F844   1.358       .  S
C838        C839   1.401       .  A
C838        F843   1.358       .  S
C839        C840   1.402       .  A
C840        F841   1.358   1_545  S
C845        C846   1.400       .  A
C845        C850   1.399       .  A
C845        F852   1.358       .  S
C846        C847   1.402       .  A
C847        C848   1.396       .  A
C847        F854   1.358   1_655  S
C848        C849   1.411       .  A
C848        F853   1.357       .  S
C849        C850   1.415       .  A
C850        F851   1.358       .  S
C855        C856   1.414       .  A
C855        C860   1.400       .  A
C855        F862   1.358       .  S
C856        C857   1.413       .  A
C857        C858   1.397       .  A
C857        F864   1.358       .  S
C858        C859   1.403       .  A
C858        F863   1.358   1_655  S
C859        C860   1.401       .  A
C860        F861   1.358       .  S
C865        C866   1.406       .  A
C865        C870   1.394       .  A
C865        F872   1.358       .  S
C866        C867   1.401       .  A
C867        C868   1.399       .  A
C867        F874   1.358       .  S
C868        C869   1.414       .  A
C868        F873   1.358       .  S
C869        C870   1.406       .  A
C870        F871   1.358       .  S
C875        C876   1.412       .  A
C875        C880   1.397       .  A
C875        F882   1.358       .  S
C876        C877   1.413       .  A
C877        C878   1.399       .  A
C877        F884   1.357       .  S
C878        C879   1.401       .  A
C878        F883   1.358       .  S
C879        C880   1.403       .  A
C880        F881   1.358       .  S
C885        C886   1.402       .  A
C885        C890   1.396       .  A
C885        F892   1.358       .  S
C886        C887   1.400       .  A
C887        C888   1.397       .  A
C887        F894   1.358       .  S
C888        C889   1.412       .  A
C888        F893   1.358       .  S
C889        C890   1.412       .  A
C890        F891   1.358       .  S
C895        C896   1.414       .  A
C895        C900   1.402       .  A
C895        F902   1.358       .  S
C896        C897   1.414       .  A
C897        C898   1.399       .  A
C897        F904   1.358       .  S
C898        C899   1.403       .  A
C898        F903   1.358       .  S
C899        C900   1.403       .  A
C900        F901   1.358       .  S
C905        C906   1.415       .  A
C905        C910   1.400       .  A
C905        F912   1.358       .  S
C906        C907   1.408       .  A
C907        C908   1.397       .  A
C907        F914   1.358       .  S
C908        C909   1.406       .  A
C908        F913   1.358       .  S
C909        C910   1.401       .  A
C910        F911   1.358       .  S
C915        C916   1.414       .  A
C915        C920   1.398       .  A
C915        F922   1.358       .  S
C916        C917   1.408       .  A
C917        C918   1.397       .  A
C917        F924   1.358       .  S
C918        C919   1.405   1_545  A
C918        F923   1.358   1_545  S
C919        C920   1.400   1_565  A
C920        F921   1.358       .  S
C925        C926   1.404       .  A
C925        C930   1.397       .  A
C925        F932   1.358       .  S
C926        C927   1.399       .  A
C927        C928   1.399       .  A
C927        F934   1.358       .  S
C928        C929   1.414       .  A
C928        F933   1.357       .  S
C929        C930   1.411       .  A
C930        F931   1.358       .  S
C935        C936   1.413       .  A
C935        C940   1.401       .  A
C935        F942   1.358       .  S
C936        C937   1.404       .  A
C937        C938   1.396       .  A
C937        F944   1.358       .  S
C938        C939   1.409       .  A
C938        F943   1.358       .  S
C939        C940   1.402       .  A
C940        F941   1.358       .  S
C945        C946   1.413       .  A
C945        C950   1.399       .  A
C945        F952   1.357       .  S
C946        C947   1.414       .  A
C947        C948   1.401       .  A
C947        F954   1.356       .  S
C948        C949   1.402       .  A
C948        F953   1.358       .  S
C949        C950   1.402       .  A
C950        F951   1.358       .  S
C955        C956   1.414       .  A
C955        C960   1.397       .  A
C955        F962   1.358       .  S
C956        C957   1.409       .  A
C957        C958   1.398       .  A
C957        F964   1.358       .  S
C958        C959   1.405       .  A
C958        F963   1.358       .  S
C959        C960   1.399       .  A
C960        F961   1.358       .  S
C965        C966   1.408       .  A
C965        C970   1.395       .  A
C965        F972   1.358       .  S
C966        C967   1.414       .  A
C967        C968   1.402       .  A
C967        F974   1.358       .  S
C968        C969   1.401       .  A
C968        F973   1.358       .  S
C969        C970   1.405       .  A
C970        F971   1.359       .  S
C975        C976   1.398       .  A
C975        C980   1.396       .  A
C975        F982   1.358       .  S
C976        C977   1.403       .  A
C977        C978   1.398       .  A
C977        F984   1.358       .  S
C978        C979   1.412       .  A
C978        F983   1.358       .  S
C979        C980   1.414       .  A
C980        F981   1.357       .  S
C985        C986   1.412       .  A
C985        C990   1.396       .  A
C985        F992   1.358       .  S
C986        C987   1.415       .  A
C987        C988   1.400       .  A
C987        F994   1.358       .  S
C988        C989   1.400       .  A
C988        F993   1.358       .  S
C989        C990   1.403       .  A
C990        F991   1.358   1_545  S
C995        C996   1.400       .  A
C995       C1000   1.397       .  A
C995       F1002   1.358       .  S
C996        C997   1.402       .  A
C997        C998   1.400       .  A
C997       F1004   1.358       .  S
C998        C999   1.413       .  A
C998       F1003   1.358       .  S
C999       C1000   1.413       .  A
C1000      F1001   1.357       .  S
C1005      C1006   1.401       .  A
C1005      C1010   1.401       .  A
C1005      F1012   1.358       .  S
C1006      C1007   1.404       .  A
C1007      C1008   1.398       .  A
C1007      F1014   1.359       .  S
C1008      C1009   1.413       .  A
C1008      F1013   1.357       .  S
C1009      C1010   1.414       .  A
C1010      F1011   1.357       .  S
C1015      C1016   1.411       .  A
C1015      C1020   1.400       .  A
C1015      F1022   1.358       .  S
C1016      C1017   1.414       .  A
C1017      C1018   1.401       .  A
C1017      F1024   1.358       .  S
C1018      C1019   1.402       .  A
C1018      F1023   1.358       .  S
C1019      C1020   1.404       .  A
C1020      F1021   1.358       .  S
C1025      C1026   1.401       .  A
C1025      C1030   1.398       .  A
C1025      F1032   1.358       .  S
C1026      C1027   1.401       .  A
C1027      C1028   1.398       .  A
C1027      F1034   1.358       .  S
C1028      C1029   1.413       .  A
C1028      F1033   1.358       .  S
C1029      C1030   1.414       .  A
C1030      F1031   1.357       .  S
C1035      C1036   1.410       .  A
C1035      C1040   1.398       .  A
C1035      F1042   1.357       .  S
C1036      C1037   1.414       .  A
C1037      C1038   1.399       .  A
C1037      F1044   1.358       .  S
C1038      C1039   1.400       .  A
C1038      F1043   1.358       .  S
C1039      C1040   1.403       .  A
C1040      F1041   1.358       .  S
C1045      C1046   1.403       .  A
C1045      C1050   1.399       .  A
C1045      F1052   1.358       .  S
C1046      C1047   1.400       .  A
C1047      C1048   1.399       .  A
C1047      F1054   1.358       .  S
C1048      C1049   1.415       .  A
C1048      F1053   1.357       .  S
C1049      C1050   1.413       .  A
C1050      F1051   1.357       .  S
C1055      C1056   1.415       .  A
C1055      C1060   1.399       .  A
C1055      F1062   1.358       .  S
C1056      C1057   1.411       .  A
C1057      C1058   1.400       .  A
C1057      F1064   1.357       .  S
C1058      C1059   1.404       .  A
C1058      F1063   1.358       .  S
C1059      C1060   1.400       .  A
C1060      F1061   1.358       .  S
C1065      C1066   1.413       .  A
C1065      C1070   1.398       .  A
C1065      F1072   1.357       .  S
C1066      C1067   1.413       .  A
C1067      C1068   1.401       .  A
C1067      F1074   1.358       .  S
C1068      C1069   1.403       .  A
C1068      F1073   1.358       .  S
C1069      C1070   1.402       .  A
C1070      F1071   1.358       .  S
C1075      C1076   1.413       .  A
C1075      C1080   1.398       .  A
C1075      F1082   1.357       .  S
C1076      C1077   1.413       .  A
C1077      C1078   1.399       .  A
C1077      F1084   1.357       .  S
C1078      C1079   1.401       .  A
C1078      F1083   1.358   1_545  S
C1079      C1080   1.401       .  A
C1080      F1081   1.358       .  S
C1085      C1086   1.405       .  A
C1085      C1090   1.396       .  A
C1085      F1092   1.358   1_655  S
C1086      C1087   1.401       .  A
C1087      C1088   1.400       .  A
C1087      F1094   1.358       .  S
C1088      C1089   1.415       .  A
C1088      F1093   1.358       .  S
C1089      C1090   1.408       .  A
C1090      F1091   1.358       .  S
C1095      C1096   1.416       .  A
C1095      C1100   1.399       .  A
C1095      F1102   1.358       .  S
C1096      C1097   1.411       .  A
C1097      C1098   1.396       .  A
C1097      F1104   1.358       .  S
C1098      C1099   1.403       .  A
C1098      F1103   1.359       .  S
C1099      C1100   1.399       .  A
C1100      F1101   1.358       .  S
C1105      C1106   1.413       .  A
C1105      C1110   1.400       .  A
C1105      F1112   1.357       .  S
C1106      C1107   1.413       .  A
C1107      C1108   1.399       .  A
C1107      F1114   1.358       .  S
C1108      C1109   1.401       .  A
C1108      F1113   1.358       .  S
C1109      C1110   1.403       .  A
C1110      F1111   1.358       .  S
C1115      C1116   1.403       .  A
C1115      C1120   1.398       .  A
C1115      F1122   1.358       .  S
C1116      C1117   1.401       .  A
C1117      C1118   1.400       .  A
C1117      F1124   1.358       .  S
C1118      C1119   1.413       .  A
C1118      F1123   1.357       .  S
C1119      C1120   1.412       .  A
C1120      F1121   1.358       .  S
C1125      C1126   1.413       .  A
C1125      C1130   1.398       .  A
C1125      F1132   1.357       .  S
C1126      C1127   1.414       .  A
C1127      C1128   1.401       .  A
C1127      F1134   1.358       .  S
C1128      C1129   1.403       .  A
C1128      F1133   1.358       .  S
C1129      C1130   1.400       .  A
C1130      F1131   1.358       .  S
C1135      C1136   1.400       .  A
C1135      C1140   1.398       .  A
C1135      F1142   1.358       .  S
C1136      C1137   1.406       .  A
C1137      C1138   1.398       .  A
C1137      F1144   1.358       .  S
C1138      C1139   1.409       .  A
C1138      F1143   1.358       .  S
C1139      C1140   1.412       .  A
C1140      F1141   1.358       .  S
C1145      C1146   1.406       .  A
C1145      C1150   1.396       .  A
C1145      F1152   1.358       .  S
C1146      C1147   1.411       .  A
C1147      C1148   1.400       .  A
C1147      F1154   1.358       .  S
C1148      C1149   1.402       .  A
C1148      F1153   1.358       .  S
C1149      C1150   1.407       .  A
C1150      F1151   1.358       .  S
C1155      C1156   1.413       .  A
C1155      C1160   1.398       .  A
C1155      F1162   1.358       .  S
C1156      C1157   1.413       .  A
C1157      C1158   1.398       .  A
C1157      F1164   1.358       .  S
C1158      C1159   1.401       .  A
C1158      F1163   1.358       .  S
C1159      C1160   1.401       .  A
C1160      F1161   1.358       .  S
C1165      C1166   1.407       .  A
C1165      C1170   1.399       .  A
C1165      F1172   1.358       .  S
C1166      C1167   1.402       .  A
C1167      C1168   1.401       .  A
C1167      F1174   1.358       .  S
C1168      C1169   1.412       .  A
C1168      F1173   1.358       .  S
C1169      C1170   1.408       .  A
C1170      F1171   1.358       .  S
C1175      C1176   1.402       .  A
C1175      C1180   1.396       .  A
C1175      F1182   1.358       .  S
C1176      C1177   1.401       .  A
C1177      C1178   1.399       .  A
C1177      F1184   1.358       .  S
C1178      C1179   1.413       .  A
C1178      F1183   1.357       .  S
C1179      C1180   1.411       .  A
C1180      F1181   1.358       .  S
C1185      C1186   1.414       .  A
C1185      C1190   1.401       .  A
C1185      F1192   1.357       .  S
C1186      C1187   1.415       .  A
C1187      C1188   1.400       .  A
C1187      F1194   1.357       .  S
C1188      C1189   1.401       .  A
C1188      F1193   1.358       .  S
C1189      C1190   1.403       .  A
C1190      F1191   1.358       .  S
C1195      C1196   1.403       .  A
C1195      C1200   1.396       .  A
C1195      F1202   1.358       .  S
C1196      C1197   1.402       .  A
C1197      C1198   1.402       .  A
C1197      F1204   1.358       .  S
C1198      C1199   1.414       .  A
C1198      F1203   1.357       .  S
C1199      C1200   1.411       .  A
C1200      F1201   1.358       .  S
C1205      C1206   1.409       .  A
C1205      C1210   1.396       .  A
C1205      F1212   1.358       .  S
C1206      C1207   1.414       .  A
C1207      C1208   1.402       .  A
C1207      F1214   1.358       .  S
C1208      C1209   1.402       .  A
C1208      F1213   1.358       .  S
C1209      C1210   1.407       .  A
C1210      F1211   1.358       .  S
C1215      C1216   1.408       .  A
C1215      C1220   1.397       .  A
C1215      F1222   1.359       .  S
C1216      C1217   1.401       .  A
C1217      C1218   1.400       .  A
C1217      F1224   1.358       .  S
C1218      C1219   1.412       .  A
C1218      F1223   1.358       .  S
C1219      C1220   1.407       .  A
C1220      F1221   1.358       .  S
C1225      C1226   1.401       .  A
C1225      C1230   1.401       .  A
C1225      F1232   1.358       .  S
C1226      C1227   1.401       .  A
C1227      C1228   1.396       .  A
C1227      F1234   1.358       .  S
C1228      C1229   1.411       .  A
C1228      F1233   1.356       .  S
C1229      C1230   1.414       .  A
C1230      F1231   1.358       .  S
C1235      C1236   1.400       .  A
C1235      C1240   1.398       .  A
C1235      F1242   1.358       .  S
C1236      C1237   1.406       .  A
C1237      C1238   1.397       .  A
C1237      F1244   1.358       .  S
C1238      C1239   1.409       .  A
C1238      F1243   1.358       .  S
C1239      C1240   1.413       .  A
C1240      F1241   1.358       .  S
C1245      C1246   1.412       .  A
C1245      C1250   1.398       .  A
C1245      F1252   1.357       .  S
C1246      C1247   1.410       .  A
C1247      C1248   1.398       .  A
C1247      F1254   1.358       .  S
C1248      C1249   1.404       .  A
C1248      F1253   1.358       .  S
C1249      C1250   1.401       .  A
C1250      F1251   1.358       .  S
C1255      C1256   1.407       .  A
C1255      C1260   1.398       .  A
C1255      F1262   1.358       .  S
C1256      C1257   1.414       .  A
C1257      C1258   1.402       .  A
C1257      F1264   1.358       .  S
C1258      C1259   1.401       .  A
C1258      F1263   1.358       .  S
C1259      C1260   1.407       .  A
C1260      F1261   1.358       .  S
C1265      C1266   1.403       .  A
C1265      C1270   1.398       .  A
C1265      F1272   1.358       .  S
C1266      C1267   1.400       .  A
C1267      C1268   1.400       .  A
C1267      F1274   1.358       .  S
C1268      C1269   1.415       .  A
C1268      F1273   1.358       .  S
C1269      C1270   1.412       .  A
C1270      F1271   1.358       .  S
C1275      C1276   1.415       .  A
C1275      C1280   1.401       .  A
C1275      F1282   1.358       .  S
C1276      C1277   1.410       .  A
C1277      C1278   1.396       .  A
C1277      F1284   1.357       .  S
C1278      C1279   1.404       .  A
C1278      F1283   1.358       .  S
C1279      C1280   1.401       .  A
C1280      F1281   1.358       .  S
