geometry optimzed in LAMMPS
_audit_creation_date              2020-12-01 
_audit_creation_method            'lammps2cif' 
_symmetry_space_group_name_H-M    'P1' 
_symmetry_Int_Tables_number       1 
_symmetry_cell_setting            triclinic 
loop_ 
_symmetry_equiv_pos_as_xyz 
  x,y,z 
_cell_length_a                    60.21523011 
_cell_length_b                    60.279966525993316 
_cell_length_c                    107.38828945305865 
_cell_angle_alpha                 90.04215663002034 
_cell_angle_beta                  89.9219153138784 
_cell_angle_gamma                 120.23829346586294 
loop_ 
_atom_site_label 
_atom_site_type_symbol 
_atom_site_fract_x 
_atom_site_fract_y 
_atom_site_fract_z 
_atom_site_charge 
C1          C  0.25835874  0.14115031  0.30425905     0.80600
N2          N  0.27069028  0.13511074  0.31309788    -0.77700
C3          C  0.25741658  0.11387802  0.32036575     0.83000
N4          N  0.23162643  0.09867595  0.31878112    -0.77700
C5          C  0.21904001  0.10485695  0.31023516     0.83100
N6          N  0.23244159  0.12613659  0.30307519    -0.79400
O7          O  0.30995249  0.03588682  0.39766512    -0.57500
C8          C  0.30796405  0.98505395  0.42341890     0.75200
O9          O  0.38462118  0.03413035  0.40624250    -0.58600
C10         C  0.32548981  0.05485030  0.39111645     0.75100
C11         C  0.35833593  0.06827140  0.43030171     0.77500
Cd12       Cd  0.34242702  0.03177193  0.41001183     1.37500
O13         O  0.30214056  0.98917769  0.41267847    -0.57500
O14         O  0.33511608  0.05444959  0.42707133    -0.56300
C15         C  0.37616040  0.01621825  0.39828530     0.77500
O16         O  0.37466278  0.06603370  0.42376562    -0.58700
O17         O  0.32929506  0.00232529  0.42768529    -0.57100
O18         O  0.34906661  0.06314471  0.39321326    -0.57100
O19         O  0.35253133  0.00615138  0.39571448    -0.56300
C20         C  0.42316852  0.22636429  0.51498797     0.80600
N21         N  0.44913700  0.23766348  0.51575243    -0.77700
C22         C  0.46232436  0.22941759  0.50876341     0.83000
N23         N  0.44911241  0.20919491  0.50100197    -0.77700
C24         C  0.42314931  0.19756486  0.50003233     0.83100
N25         N  0.41016338  0.20646883  0.50688512    -0.79400
C26         C  0.69152755  0.35460895  0.52361581     0.80600
N27         N  0.66574767  0.34072728  0.52179088    -0.77700
C28         C  0.65351646  0.31471238  0.52106811     0.83000
N29         N  0.66733820  0.30263445  0.52186711    -0.77700
C30         C  0.69311549  0.31643553  0.52372509     0.83100
N31         N  0.70518901  0.34238638  0.52447069    -0.79400
C32         C  0.89684168  0.73620105  0.32107258     0.80600
N33         N  0.90617468  0.76168237  0.31914468    -0.77700
C34         C  0.89486997  0.77393579  0.32449424     0.83000
N35         N  0.87359856  0.76025879  0.33159960    -0.77700
C36         C  0.86398047  0.73482116  0.33365947     0.83100
N37         N  0.87561795  0.72274460  0.32836554    -0.79400
O38         O  0.65247520  0.62400951  0.41644015    -0.57500
C39         C  0.71189848  0.64506228  0.44180303     0.75200
O40         O  0.72843676  0.69571498  0.40783281    -0.58600
C41         C  0.64914314  0.63253830  0.40625431     0.75100
C42         C  0.67992506  0.69863724  0.43401296     0.77500
Cd43       Cd  0.69361351  0.66405520  0.42164888     1.37500
O44         O  0.69321340  0.63008612  0.43494639    -0.57500
O45         O  0.66716273  0.67454826  0.43552948    -0.56300
C46         C  0.73249457  0.67960412  0.40222542     0.77500
O47         O  0.69907559  0.70679413  0.42678015    -0.58700
O48         O  0.72220490  0.66871421  0.43925739    -0.57100
O49         O  0.66563767  0.65546233  0.40359900    -0.57100
O50         O  0.71958676  0.65672674  0.40612815    -0.56300
C51         C  0.82223663  0.58873389  0.52045987     0.80600
N52         N  0.80952090  0.56293414  0.52217486    -0.77700
C53         C  0.78652543  0.54754639  0.51666708     0.83000
N54         N  0.77641759  0.55845350  0.50921627    -0.77700
C55         C  0.78901064  0.58423020  0.50723046     0.83100
N56         N  0.81194464  0.59939516  0.51296663    -0.79400
C57         C  0.86696697  0.11881252  0.31441988     0.80600
N58         N  0.87340092  0.13607146  0.32386460    -0.77700
C59         C  0.89467390  0.14262859  0.33087763     0.83000
N60         N  0.90904885  0.13149015  0.32850461    -0.77700
C61         C  0.90258528  0.11393440  0.31926571     0.83100
N62         N  0.88145858  0.10778032  0.31231460    -0.79400
O63         O  0.96213497  0.31252404  0.43499523    -0.57500
C64         C  0.00601134  0.35853301  0.40637091     0.75200
O65         O  0.03580256  0.31582083  0.42247072    -0.58600
C66         C  0.95425335  0.29012951  0.43919856     0.75100
C67         C  0.96787340  0.27055049  0.40155190     0.77500
Cd68       Cd  0.99244113  0.31147978  0.41984795     1.37500
O69         O  0.98969363  0.35073728  0.41512620    -0.57500
O70         O  0.96031343  0.28635126  0.40369489    -0.56300
C71         C  0.04033438  0.32673329  0.43299425     0.77500
O72         O  0.98711277  0.27389236  0.40783494    -0.58700
O73         O  0.01522583  0.34428201  0.40382874    -0.57100
O74         O  0.96373608  0.27763202  0.43431432    -0.57100
O75         O  0.02234858  0.32924116  0.43753380    -0.56300
C76         C  0.79966037  0.19050283  0.52429299     0.80600
N77         N  0.81638558  0.19730607  0.51453963    -0.77700
C78         C  0.82093629  0.21760044  0.50715386     0.83000
N79         N  0.80861829  0.23068561  0.50966505    -0.77700
C80         C  0.79141493  0.22359133  0.51906954     0.83100
N81         N  0.78711271  0.20356208  0.52636503    -0.79400
C82         C  0.02524924  0.00415419  0.30991049     0.80600
N83         N  0.01167490  0.97832978  0.31164387    -0.77700
C84         C  0.98568728  0.96588829  0.31288777     0.83000
N85         N  0.97333355  0.97951121  0.31243646    -0.77700
C86         C  0.98666045  0.00544081  0.31104621     0.83100
N87         N  0.01266666  0.01756415  0.30975152    -0.79400
C88         C  0.61161674  0.79779763  0.47978051     0.80600
N89         N  0.62313551  0.81519904  0.48916001    -0.77700
C90         C  0.60893967  0.82194791  0.49645849     0.83000
N91         N  0.58326602  0.81093335  0.49454418    -0.77700
C92         C  0.57154781  0.79322563  0.48542847     0.83100
N93         N  0.58584050  0.78684211  0.47810026    -0.79400
O94         O  0.64027998  0.98098017  0.59284025    -0.57500
C95         C  0.66692064  0.94507218  0.56886815     0.75200
O96         O  0.72248978  0.02141196  0.58240518    -0.58600
C97         C  0.64798104  0.99480447  0.60254258     0.75100
C98         C  0.69978872  0.96175986  0.60796934     0.77500
Cd99       Cd  0.68161872  0.98251498  0.58874821     1.37500
O100        O  0.65023201  0.94664372  0.57542021    -0.57500
O101        O  0.67670940  0.95040523  0.60429843    -0.56300
C102        C  0.71186490  0.03008378  0.57527444     0.77500
O103        O  0.71469963  0.98295594  0.60265062    -0.58700
O104        O  0.69004925  0.96057656  0.57168469    -0.57100
O105        O  0.67082450  0.00237161  0.60590126    -0.57100
O106        O  0.68767429  0.01688845  0.57463984    -0.56300
C107        C  0.76978386  0.86847849  0.69017900     0.80600
N108        N  0.75784228  0.87531567  0.68148426    -0.77700
C109        C  0.77180320  0.89665783  0.67435755     0.83000
N110        N  0.79760558  0.91118453  0.67604074    -0.77700
C111        C  0.80962981  0.90475175  0.68476683     0.83100
N112        N  0.79565731  0.88320531  0.69164351    -0.79400
C113        C  0.20729914  0.42805678  0.47976091     0.80600
N114        N  0.22199306  0.45359778  0.47732890    -0.77700
C115        C  0.24359930  0.46876193  0.48398326     0.83000
N116        N  0.25044760  0.45823609  0.49327859    -0.77700
C117        C  0.23629486  0.43279112  0.49583301     0.83100
N118        N  0.21484487  0.41762547  0.48896111    -0.79400
O119        O  0.37828892  0.39388160  0.58416160    -0.57500
C120        C  0.31511749  0.37038094  0.56013378     0.75200
O121        O  0.33351341  0.31105385  0.57076584    -0.58600
C122        C  0.38389336  0.38422132  0.59326989     0.75100
C123        C  0.30294928  0.33646290  0.59887567     0.77500
Cd124      Cd  0.33882377  0.35287216  0.57829161     1.37500
O125        O  0.33731940  0.38548678  0.56447553    -0.57500
O126        O  0.31445311  0.35929066  0.59486870    -0.56300
C127        C  0.35262037  0.32099508  0.56343152     0.77500
O128        O  0.30722382  0.32070529  0.59300994    -0.58700
O129        O  0.30441176  0.34762981  0.56418628    -0.57100
O130        O  0.36932061  0.36040493  0.59498442    -0.57100
O131        O  0.36519145  0.34525337  0.56320745    -0.56300
C132        C  0.13574674  0.26740492  0.67926657     0.80600
N133        N  0.12586332  0.24167446  0.68052826    -0.77700
C134        C  0.13647916  0.22943804  0.67458726     0.83000
N135        N  0.15712843  0.24294023  0.66710654    -0.77700
C136        C  0.16704856  0.26856560  0.66546721     0.83100
N137        N  0.15636096  0.28075105  0.67159211    -0.79400
C138        C  0.23064610  0.82387077  0.47462397     0.80600
N139        N  0.20942008  0.81441685  0.48207141    -0.77700
C140        C  0.20106427  0.79186603  0.48828783     0.83000
N141        N  0.21434798  0.77926553  0.48726620    -0.77700
C142        C  0.23565549  0.78860952  0.48006854     0.83100
N143        N  0.24334815  0.81065855  0.47363470    -0.79400
O144        O  0.07510727  0.69625680  0.56593318    -0.57500
C145        C  0.02594501  0.64423960  0.59291279     0.75200
O146        O  0.03855891  0.72228362  0.59398782    -0.58600
C147        C  0.07454026  0.71245716  0.55862637     0.75100
C148        C  0.98920083  0.67244583  0.56737782     0.77500
Cd149      Cd  0.03846181  0.69050933  0.57914613     1.37500
O150        O  0.03809351  0.64956000  0.58268886    -0.57500
O151        O  0.00043723  0.65953277  0.56767082    -0.56300
C152        C  0.06174664  0.73133087  0.59731934     0.77500
O153        O  0.00091525  0.69445398  0.57241051    -0.58700
O154        O  0.02117131  0.66111155  0.59700252    -0.57100
O155        O  0.05707565  0.71776225  0.56076428    -0.57100
O156        O  0.07346035  0.72097569  0.59249760    -0.56300
C157        C  0.16481783  0.89131976  0.68002632     0.80600
N158        N  0.15853503  0.87501371  0.67014197    -0.77700
C159        C  0.13862463  0.87068101  0.66250154     0.83000
N160        N  0.12483827  0.88234909  0.66501818    -0.77700
C161        C  0.13071278  0.89827763  0.67491181     0.83100
N162        N  0.15072734  0.90276022  0.68230560    -0.79400
C163        C  0.00284035  0.00114823  0.68942323     0.80600
N164        N  0.01697054  0.02699946  0.68796590    -0.77700
C165        C  0.04287356  0.03871437  0.68665499     0.83000
N166        N  0.05444935  0.02440390  0.68643643    -0.77700
C167        C  0.04059734  0.99857325  0.68801041     0.83100
N168        N  0.01466193  0.98700558  0.68942267    -0.79400
C169        C  0.33928820  0.69997396  0.47292796     0.80600
N170        N  0.32684057  0.67397767  0.47301984    -0.77700
C171        C  0.33995974  0.66120401  0.47385461     0.83000
N172        N  0.36609361  0.67498792  0.47447808    -0.77700
C173        C  0.37898476  0.70115366  0.47439441     0.83100
N174        N  0.36531478  0.71340844  0.47367026    -0.79400
C175        C  0.93941865  0.47411611  0.63857330     0.80600
N176        N  0.95076382  0.46470684  0.64627328    -0.77700
C177        C  0.93615765  0.44306257  0.65312261     0.83000
N178        N  0.91022169  0.43110757  0.65239980    -0.77700
C179        C  0.89864164  0.44051779  0.64507187     0.83100
N180        N  0.91326294  0.46177054  0.63810704    -0.79400
O181        O  0.04408274  0.38894539  0.75476519    -0.57500
C182        C  0.04122181  0.33621382  0.72949712     0.75200
O183        O  0.96989307  0.30874342  0.74745551    -0.58600
C184        C  0.02913633  0.39355873  0.76113790     0.75100
C185        C  0.99052741  0.36965324  0.72314350     0.77500
Cd186      Cd  0.00937739  0.35122828  0.74329137     1.37500
O187        O  0.05081407  0.35281498  0.73810956    -0.57500
O188        O  0.01393014  0.37631758  0.72447244    -0.56300
C189        C  0.97746228  0.30499215  0.75781968     0.77500
O190        O  0.97547358  0.35475831  0.73145777    -0.58700
O191        O  0.01730457  0.32616885  0.72786459    -0.57100
O192        O  0.00536086  0.37889443  0.75913548    -0.57100
O193        O  0.99943370  0.32237139  0.76137229    -0.56300
C194        C  0.09158586  0.55984580  0.84275032     0.80600
N195        N  0.11687574  0.56895507  0.84514657    -0.77700
C196        C  0.13024218  0.55937449  0.83940557     0.83000
N197        N  0.11811325  0.54050682  0.83085606    -0.77700
C198        C  0.09290149  0.53101487  0.82807995     0.83100
N199        N  0.07957347  0.54072883  0.83410350    -0.79400
C200        C  0.48971750  0.92690917  0.84997315     0.80600
N201        N  0.47755649  0.90075590  0.85029327    -0.77700
C202        C  0.45516502  0.88627579  0.84396665     0.83000
N203        N  0.44521497  0.89836200  0.83738338    -0.77700
C204        C  0.45711144  0.92430739  0.83684753     0.83100
N205        N  0.47958284  0.93861811  0.84308338    -0.79400
O206        O  0.36784720  0.97109567  0.76275384    -0.57500
C207        C  0.31985237  0.97475993  0.73541513     0.75200
O208        O  0.37001003  0.04580211  0.75557856    -0.58600
C209        C  0.38633786  0.98697382  0.76949530     0.75100
C210        C  0.40550421  0.02128853  0.73032245     0.77500
Cd211      Cd  0.36673874  0.00449855  0.74962689     1.37500
O212        O  0.32800721  0.96383192  0.74266837    -0.57500
O213        O  0.39063314  0.99791134  0.73294211    -0.56300
C214        C  0.35334448  0.03634114  0.76417338     0.77500
O215        O  0.40311215  0.03740944  0.73691071    -0.58700
O216        O  0.33310154  0.99897344  0.73511939    -0.57100
O217        O  0.39605437  0.01038588  0.76666112    -0.57100
O218        O  0.34295385  0.01233841  0.76576476    -0.56300
C219        C  0.56513231  0.08140669  0.64682819     0.80600
N220        N  0.54529308  0.06978314  0.65512414    -0.77700
C221        C  0.53634378  0.08378136  0.66105480     0.83000
N222        N  0.54771750  0.10929875  0.65878665    -0.77700
C223        C  0.56699058  0.12090720  0.65040450     0.83100
N224        N  0.57559389  0.10685709  0.64448972    -0.79400
C225        C  0.46970989  0.52660161  0.85275614     0.80600
N226        N  0.49020152  0.53582607  0.84485393    -0.77700
C227        C  0.49646000  0.55681106  0.83768098     0.83000
N228        N  0.48149403  0.56769836  0.83807563    -0.77700
C229        C  0.46062683  0.55830604  0.84564313     0.83100
N230        N  0.45508084  0.53793013  0.85306153    -0.79400
O231        O  0.63709147  0.65119020  0.76494137    -0.57500
C232        C  0.68758059  0.70026279  0.73717694     0.75200
O233        O  0.71015481  0.64964900  0.75760072    -0.58600
C234        C  0.63319600  0.63125114  0.77079993     0.75100
C235        C  0.64681943  0.61496594  0.73210542     0.77500
Cd236      Cd  0.67181561  0.65347305  0.75136250     1.37500
O237        O  0.67389789  0.69522906  0.74690276    -0.57500
O238        O  0.63621942  0.62604829  0.73734786    -0.56300
C239        C  0.71753386  0.66664511  0.76605111     0.77500
O240        O  0.66927217  0.62141790  0.73585378    -0.58700
O241        O  0.69373354  0.68380852  0.73413939    -0.57100
O242        O  0.64670141  0.62166054  0.76742638    -0.57100
O243        O  0.70414970  0.67723789  0.76734190    -0.56300
C244        C  0.54394034  0.46186260  0.64550033     0.80600
N245        N  0.55043276  0.48016320  0.65451461    -0.77700
C246        C  0.57087420  0.48644787  0.66218058     0.83000
N247        N  0.58425772  0.47397659  0.66091029    -0.77700
C248        C  0.57828753  0.45627136  0.65186013     0.83100
N249        N  0.55830991  0.45047796  0.64420962    -0.79400
C250        C  0.70511971  0.35205635  0.64588326     0.80600
N251        N  0.69135963  0.32602802  0.64514009    -0.77700
C252        C  0.66531062  0.31324542  0.64592121     0.83000
N253        N  0.65305107  0.32666062  0.64774393    -0.77700
C254        C  0.66652317  0.35263117  0.64868103     0.83100
N255        N  0.69253697  0.36519533  0.64769663    -0.79400
C256        C  0.36189174  0.69212516  0.84869088     0.80600
N257        N  0.33570901  0.67857415  0.84873619    -0.77700
C258        C  0.32272294  0.65242627  0.84895759     0.83000
N259        N  0.33619446  0.63997019  0.84893412    -0.77700
C260        C  0.36222439  0.65311838  0.84915808     0.83100
N261        N  0.37494013  0.67917107  0.84902126    -0.79400
C262        C  0.42271230  0.19267885  0.02462847     0.80600
N263        N  0.44839152  0.20737230  0.02691991    -0.77700
C264        C  0.46381694  0.22783098  0.01962247     0.83000
N265        N  0.45346973  0.23328577  0.00971999    -0.77700
C266        C  0.42798857  0.21898966  0.00721392     0.83100
N267        N  0.41261743  0.19878780  0.01473618    -0.79400
O268        O  0.31732842  0.32046238  0.92747691    -0.57500
C269        C  0.33992441  0.28448706  0.90056806     0.75200
O270        O  0.39919378  0.35890709  0.91263659    -0.58600
C271        C  0.32831680  0.33889516  0.93514355     0.75100
C272        C  0.37432474  0.29709020  0.93882458     0.77500
Cd273      Cd  0.35783766  0.32170555  0.92051873     1.37500
O274        O  0.32413207  0.28652197  0.90764170    -0.57500
O275        O  0.35270963  0.28554418  0.93347946    -0.56300
C276        C  0.38849566  0.36572649  0.90450918     0.77500
O277        O  0.38877492  0.32042777  0.93577746    -0.58700
O278        O  0.36351723  0.29934431  0.90289715    -0.57100
O279        O  0.35239125  0.34875640  0.93596174    -0.57100
O280        O  0.36423346  0.35275871  0.90422985    -0.56300
C281        C  0.28450824  0.12712838  0.81627072     0.80600
N282        N  0.29691881  0.14655452  0.82465642    -0.77700
C283        C  0.28346639  0.15547500  0.83109096     0.83000
N284        N  0.25773054  0.14454081  0.82934385    -0.77700
C285        C  0.24518434  0.12467289  0.82133334     0.83100
N286        N  0.25874070  0.11623685  0.81480304    -0.79400
C287        C  0.83360051  0.23391802  0.01403447     0.80600
N288        N  0.82028196  0.24641186  0.01557567    -0.77700
C289        C  0.79966055  0.24084738  0.00833401     0.83000
N290        N  0.79227455  0.22234417  0.99951981    -0.77700
C291        C  0.80535556  0.20966318  0.99777888     0.83100
N292        N  0.82625476  0.21566979  0.00499250    -0.79400
O293        O  0.70240255  0.06550280  0.92734644    -0.57500
C294        C  0.65150703  0.01153311  0.90163320     0.75200
O295        O  0.73414332  0.02990981  0.90062568    -0.58600
C296        C  0.72464327  0.07289828  0.93164410     0.75100
C297        C  0.68960299  0.98969435  0.93103468     0.77500
Cd298      Cd  0.70080387  0.03107650  0.91391994     1.37500
O299        O  0.66359968  0.03432740  0.90578233    -0.57500
O300        O  0.67991544  0.00398781  0.93207504    -0.56300
C301        C  0.73601121  0.04669915  0.89292777     0.77500
O302        O  0.70458995  0.99442711  0.92185564    -0.58700
O303        O  0.66227677  0.99834347  0.90314569    -0.57100
O304        O  0.73601667  0.06179592  0.92726950    -0.57100
O305        O  0.72181536  0.05617801  0.89501713    -0.56300
C306        C  0.89632671  0.14234845  0.80891650     0.80600
N307        N  0.87659072  0.13402873  0.81725388    -0.77700
C308        C  0.86971081  0.11276251  0.82437821     0.83000
N309        N  0.88290043  0.10003959  0.82312543    -0.77700
C310        C  0.90275656  0.10831882  0.81499749     0.83100
N311        N  0.90916394  0.12927255  0.80791429    -0.79400
C312        C  0.01290960  0.02668568  0.80891819     0.80600
N313        N  0.03899563  0.04078312  0.80903127    -0.77700
C314        C  0.05329062  0.02915762  0.80976051     0.83000
N315        N  0.04107828  0.00312618  0.81075914    -0.77700
C316        C  0.01501990  0.98881563  0.81099008     0.83100
N317        N  0.00113859  0.00077649  0.80998298    -0.79400
C318        C  0.80580919  0.59996950  0.01982034     0.80600
N319        N  0.82473960  0.61064053  0.01104644    -0.77700
C320        C  0.83134645  0.59562725  0.00431023     0.83000
N321        N  0.81880492  0.56989582  0.00641598    -0.77700
C322        C  0.79995812  0.55893478  0.01508292     0.83100
N323        N  0.79369487  0.57418424  0.02168858    -0.79400
O324        O  0.99995019  0.63063664  0.90731529    -0.57500
C325        C  0.96432555  0.65304519  0.93551722     0.75200
O326        O  0.03997214  0.71200897  0.92325216    -0.58600
C327        C  0.01764279  0.64202571  0.89929459     0.75100
C328        C  0.98019176  0.68956731  0.89722516     0.77500
Cd329      Cd  0.00247294  0.67099695  0.91563561     1.37500
O330        O  0.97030371  0.63796110  0.93020641    -0.57500
O331        O  0.96924894  0.66642239  0.90076139    -0.56300
C332        C  0.04796253  0.70144292  0.93080499     0.77500
O333        O  0.00164034  0.70447219  0.90235187    -0.58700
O334        O  0.97542823  0.67579500  0.93140074    -0.57100
O335        O  0.02799026  0.66621564  0.89902847    -0.57100
O336        O  0.03523387  0.67716051  0.93101962    -0.56300
C337        C  0.88418363  0.75373701  0.81393362     0.80600
N338        N  0.89801949  0.77963698  0.81201852    -0.77700
C339        C  0.91837416  0.79526090  0.81937997     0.83000
N340        N  0.92497553  0.78457559  0.82876517    -0.77700
C341        C  0.91154237  0.75886749  0.83084813     0.83100
N342        N  0.89126200  0.74358935  0.82339054    -0.79400
C343        C  0.65740040  0.32787427  0.02536282     0.80600
N344        N  0.67078125  0.31530822  0.02426611    -0.77700
C345        C  0.69690501  0.32845243  0.02416854     0.83000
N346        N  0.70956748  0.35446654  0.02492942    -0.77700
C347        C  0.69651234  0.36728818  0.02591556     0.83100
N348        N  0.67041360  0.35393492  0.02596668    -0.79400
C349        C  0.53546962  0.08401230  0.15224976     0.80600
N350        N  0.54755679  0.11012393  0.15145990    -0.77700
C351        C  0.56877899  0.12516825  0.15844088     0.83000
N352        N  0.57817462  0.11383528  0.16597555    -0.77700
C353        C  0.56687301  0.08794567  0.16676770     0.83100
N354        N  0.54527027  0.07304239  0.15994345    -0.79400
O355        O  0.61777223  0.96719609  0.26243862    -0.57500
C356        C  0.66675968  0.96249815  0.23673417     0.75200
O357        O  0.66037009  0.02834811  0.23402089    -0.58600
C358        C  0.62042243  0.98316672  0.27084467     0.75100
C359        C  0.70393708  0.02781892  0.26453908     0.77500
Cd360      Cd  0.65671637  0.99796152  0.25065883     1.37500
O361        O  0.67267088  0.98451391  0.23272115    -0.57500
O362        O  0.69185374  0.00361711  0.26407281    -0.56300
C363        C  0.63637577  0.01899929  0.23265852     0.77500
O364        O  0.69457771  0.03878106  0.25809421    -0.58700
O365        O  0.65485373  0.95601749  0.24702712    -0.57100
O366        O  0.63952982  0.00559206  0.26977402    -0.57100
O367        O  0.62198448  0.00034840  0.23965896    -0.56300
C368        C  0.46075538  0.93164048  0.35370651     0.80600
N369        N  0.48072401  0.94294746  0.34550777    -0.77700
C370        C  0.48657237  0.92827853  0.33809777     0.83000
N371        N  0.47227237  0.90234575  0.33889138    -0.77700
C372        C  0.45189771  0.89077037  0.34669877     0.83100
N373        N  0.44631218  0.90555465  0.35414745    -0.79400
C374        C  0.67408764  0.35969566  0.15275256     0.80600
N375        N  0.70011390  0.37091114  0.15276795    -0.77700
C376        C  0.71156533  0.35642183  0.15264887     0.83000
N377        N  0.69667073  0.33042435  0.15239620    -0.77700
C378        C  0.67060520  0.31887154  0.15238538     0.83100
N379        N  0.65943275  0.33364199  0.15273118    -0.79400
C380        C  0.57842274  0.49676946  0.15157568     0.80600
N381        N  0.55831069  0.48840748  0.15968019    -0.77700
C382        C  0.55241264  0.46836469  0.16749521     0.83000
N383        N  0.56670417  0.45674902  0.16718182    -0.77700
C384        C  0.58674017  0.46475290  0.15920784     0.83100
N385        N  0.59232818  0.48462241  0.15142794    -0.79400
O386        O  0.32626953  0.36412644  0.24473197    -0.57500
C387        C  0.38796713  0.39990495  0.26889698     0.75200
O388        O  0.36293922  0.32056401  0.25260584    -0.58600
C389        C  0.32095042  0.35200339  0.23452341     0.75100
C390        C  0.40861087  0.38595496  0.23060303     0.77500
Cd391      Cd  0.36657173  0.36335160  0.24852930     1.37500
O392        O  0.37211470  0.40027459  0.26126698    -0.57500
O393        O  0.39544712  0.39622270  0.23352132    -0.56300
C394        C  0.34511809  0.31345466  0.26062412     0.77500
O395        O  0.40237691  0.36495548  0.23605017    -0.58700
O396        O  0.39409020  0.38298380  0.26693466    -0.57100
O397        O  0.33741793  0.34657224  0.23052685    -0.57100
O398        O  0.33809668  0.32951306  0.26297706    -0.56300
C399        C  0.48910957  0.55510934  0.35415939     0.80600
N400        N  0.47561342  0.56733408  0.35615439    -0.77700
C401        C  0.45379854  0.56085355  0.34969859     0.83000
N402        N  0.44540895  0.54166929  0.34120766    -0.77700
C403        C  0.45875656  0.52950269  0.33886119     0.83100
N404        N  0.48066193  0.53631452  0.34536481    -0.79400
C405        C  0.94699726  0.46042659  0.15027439     0.80600
N406        N  0.92101627  0.44770494  0.14882032    -0.77700
C407        C  0.90578734  0.45172720  0.15672813     0.83000
N408        N  0.91681454  0.46843561  0.16631118    -0.77700
C409        C  0.94268148  0.48133037  0.16793454     0.83100
N410        N  0.95781671  0.47751602  0.15980234    -0.79400
O411        O  0.05990354  0.69317909  0.24954424    -0.57500
C412        C  0.03720376  0.63020114  0.27326911     0.75200
O413        O  0.97945640  0.65273712  0.26092970    -0.58600
C414        C  0.04964038  0.69979575  0.24113116     0.75100
C415        C  0.00350377  0.61422493  0.23615573     0.77500
Cd416      Cd  0.01964430  0.65309881  0.25521866     1.37500
O417        O  0.05255551  0.65199659  0.26859218    -0.57500
O418        O  0.02673608  0.62843932  0.23927258    -0.56300
C419        C  0.98821221  0.66509981  0.27099819     0.77500
O420        O  0.98731207  0.61816487  0.24184044    -0.58700
O421        O  0.01425908  0.61928055  0.26937812    -0.57100
O422        O  0.02582752  0.68503016  0.23946659    -0.57100
O423        O  0.01121459  0.67186332  0.27361878    -0.56300
C424        C  0.08691362  0.52307295  0.35703098     0.80600
N425        N  0.11291366  0.53702785  0.35843868    -0.77700
C426        C  0.12771180  0.55734526  0.35089532     0.83000
N427        N  0.11607451  0.56339516  0.34184540    -0.77700
C428        C  0.09027803  0.54969249  0.34015406     0.83100
N429        N  0.07565852  0.52934195  0.34772676    -0.79400
C430        C  0.36129839  0.66011596  0.35686307     0.80600
N431        N  0.33525824  0.64633696  0.35780721    -0.77700
C432        C  0.32115648  0.65817738  0.35691579     0.83000
N433        N  0.33343969  0.68394555  0.35495396    -0.77700
C434        C  0.35947304  0.69794979  0.35411961     0.83100
N435        N  0.37319947  0.68579210  0.35486934    -0.79400
C436        C  0.24776941  0.42463414  0.98245145     0.80600
N437        N  0.26164946  0.45048788  0.98071834    -0.77700
C438        C  0.25725454  0.46643597  0.98786759     0.83000
N439        N  0.23862428  0.45648017  0.99668527    -0.77700
C440        C  0.22466995  0.43076711  0.99862457     0.83100
N441        N  0.22941309  0.41481888  0.99153862    -0.79400
O442        O  0.07742916  0.38572367  0.06887370    -0.57500
C443        C  0.02169694  0.37966490  0.09495502     0.75200
O444        O  0.00385763  0.30965500  0.07299420    -0.58600
C445        C  0.08213003  0.37075622  0.06258664     0.75100
C446        C  0.05993517  0.33307383  0.10031221     0.77500
Cd447      Cd  0.04015356  0.35118288  0.08053972     1.37500
O448        O  0.03888463  0.39072278  0.08666642    -0.57500
O449        O  0.06986245  0.35661961  0.09762246    -0.56300
C450        C  0.99515709  0.31935396  0.06533604     0.77500
O451        O  0.04074154  0.31772712  0.09380418    -0.58700
O452        O  0.01348041  0.35597945  0.09635148    -0.57100
O453        O  0.06721519  0.34703791  0.06449247    -0.57100
O454        O  0.00746637  0.34363316  0.06470976    -0.56300
C455        C  0.15520929  0.27255728  0.18592326     0.80600
N456        N  0.14048805  0.24685014  0.18766951    -0.77700
C457        C  0.11839401  0.23253740  0.18128710     0.83000
N458        N  0.11113376  0.24421553  0.17271159    -0.77700
C459        C  0.12569743  0.26996514  0.17063369     0.83100
N460        N  0.14773540  0.28405428  0.17730428    -0.79400
C461        C  0.61959733  0.83929662  0.98958348     0.80600
N462        N  0.63186105  0.83062492  0.99708152    -0.77700
C463        C  0.61788638  0.80944639  0.00429300     0.83000
N464        N  0.59184023  0.79684486  0.00384699    -0.77700
C465        C  0.57953074  0.80498825  0.99619502     0.83100
N466        N  0.59349217  0.82625674  0.98916138    -0.79400
O467        O  0.66230895  0.70164589  0.06920436    -0.57500
C468        C  0.66223926  0.65571934  0.09831078     0.75200
O469        O  0.73434370  0.70012121  0.07693800    -0.58600
C470        C  0.67801803  0.72260765  0.06396536     0.75100
C471        C  0.71280143  0.73865819  0.10262800     0.77500
Cd472      Cd  0.69438283  0.70023052  0.08316285     1.37500
O473        O  0.65257232  0.66247407  0.08965540    -0.57500
O474        O  0.68914260  0.72409882  0.10035140    -0.56300
C475        C  0.72339190  0.68255481  0.06884530     0.77500
O476        O  0.72834293  0.73593066  0.09570555    -0.58700
O477        O  0.68634902  0.66911679  0.09958635    -0.57100
O478        O  0.70095230  0.73326840  0.06783635    -0.57100
O479        O  0.69947447  0.67335453  0.06766687    -0.56300
C480        C  0.75719978  0.88696651  0.18968247     0.80600
N481        N  0.74862185  0.86912143  0.18041783    -0.77700
C482        C  0.76511000  0.86331307  0.17452669     0.83000
N483        N  0.79020806  0.87546997  0.17803720    -0.77700
C484        C  0.79920006  0.89349592  0.18719768     0.83100
N485        N  0.78247672  0.89908262  0.19289319    -0.79400
C486        C  0.13042445  0.87023502  0.19708702     0.80600
N487        N  0.11890655  0.88420882  0.19941610    -0.77700
C488        C  0.12675573  0.90684628  0.19356349     0.83000
N489        N  0.14570031  0.91525402  0.18493155    -0.77700
C490        C  0.15680779  0.90110805  0.18209613     0.83100
N491        N  0.14922021  0.87861724  0.18823901    -0.79400
O492        O  0.32144892  0.02614605  0.08569765    -0.57500
C493        C  0.28228525  0.96719485  0.11011559     0.75200
O494        O  0.31703588  0.94909884  0.07754462    -0.58600
C495        C  0.33486132  0.03100739  0.07591009     0.75100
C496        C  0.36817049  0.00126827  0.10448963     0.77500
Cd497      Cd  0.32070250  0.98540127  0.09047014     1.37500
O498        O  0.28705708  0.98640513  0.10346534    -0.57500
O499        O  0.35464260  0.01172417  0.10560814    -0.56300
C500        C  0.29775317  0.94570740  0.07124369     0.77500
O501        O  0.36009731  0.98319281  0.09659259    -0.58700
O502        O  0.29461553  0.95598300  0.10731586    -0.57100
O503        O  0.34164405  0.01496508  0.07296265    -0.57100
O504        O  0.28876251  0.95998822  0.07413591    -0.56300
C505        C  0.20076781  0.78183749  0.98857587     0.80600
N506        N  0.20866537  0.80187787  0.99667509    -0.77700
C507        C  0.23003771  0.80937357  0.00379256     0.83000
N508        N  0.24296485  0.79638852  0.00287283    -0.77700
C509        C  0.23542393  0.77644852  0.99485618     0.83100
N510        N  0.21432688  0.76941779  0.98774102    -0.79400
C511        C  0.34633506  0.69548690  0.98886405     0.80600
N512        N  0.37212027  0.70938011  0.99062581    -0.77700
C513        C  0.38675935  0.69811389  0.98976752     0.83000
N514        N  0.37521620  0.67264211  0.98703782    -0.77700
C515        C  0.34936598  0.65850604  0.98526078     0.83100
N516        N  0.33509966  0.67008080  0.98632945    -0.79400
C517        C  0.02890681  0.04072338  0.19381518     0.80600
N518        N  0.04369633  0.02969440  0.19488239    -0.77700
C519        C  0.03266977  0.00402552  0.19682849     0.83000
N520        N  0.00668944  0.98935414  0.19770125    -0.77700
C521        C  0.99169138  0.00010398  0.19649143     0.83100
N522        N  0.00289160  0.02577314  0.19442294    -0.79400
C523        C  0.33025150  0.70741075  0.99018794    -0.11600
C524        C  0.33733551  0.73150350  0.98489184     0.03800
C525        C  0.32101843  0.74160240  0.98611011    -0.12200
C526        C  0.29771410  0.72813364  0.99258402     0.18700
C527        C  0.29067542  0.70422667  0.99795660    -0.09200
C528        C  0.30683864  0.69397177  0.99666779    -0.02200
H529        H  0.32639519  0.75994911  0.98189393     0.05200
C530        C  0.28099472  0.73939025  0.99350571     0.20700
H531        H  0.30118595  0.67550567  0.00083232     0.10400
C532        C  0.26197432  0.73323821  0.98451741    -0.15500
C533        C  0.24674534  0.74474643  0.98464106     0.03400
C534        C  0.25039515  0.76284307  0.99408296    -0.10900
C535        C  0.26951877  0.76857325  0.00313925    -0.00900
C536        C  0.28473212  0.75714677  0.00286541    -0.06100
H537        H  0.25929564  0.71970150  0.97721088     0.06400
H538        H  0.27291490  0.78217189  0.01051286     0.09800
Br539      Br  0.25936327  0.68515314  0.00721254    -0.05800
Br540      Br  0.36799381  0.75067676  0.97515920    -0.02700
Br541      Br  0.22255559  0.73516440  0.97120973     0.00100
Br542      Br  0.31066335  0.76653092  0.01538637    -0.04200
C543        C  0.23924103  0.83113179  0.01271497    -0.11600
C544        C  0.26578494  0.84835867  0.01461177     0.03800
C545        C  0.27393855  0.86695313  0.02399840    -0.12200
C546        C  0.25624207  0.86882423  0.03178700     0.18700
C547        C  0.22972221  0.85240199  0.02958161    -0.09200
C548        C  0.22145649  0.83386064  0.02008752    -0.02200
H549        H  0.29435147  0.87992561  0.02533871     0.05200
C550        C  0.26605917  0.88792515  0.04214105     0.20700
H551        H  0.20104483  0.82086149  0.01880026     0.10400
C552        C  0.26126086  0.90840965  0.04208036    -0.15500
C553        C  0.27113627  0.92730062  0.05141135     0.03400
C554        C  0.28641622  0.92605121  0.06112720    -0.10900
C555        C  0.29129067  0.90555089  0.06108116    -0.00900
C556        C  0.28126207  0.88664152  0.05178543    -0.06100
H557        H  0.25005742  0.90994065  0.03458712     0.06400
H558        H  0.30282198  0.90403287  0.06840212     0.09800
Br559      Br  0.20405737  0.85344306  0.03975211    -0.05800
Br560      Br  0.29204855  0.84824291  0.00446631    -0.02700
Br561      Br  0.26404033  0.95485684  0.04976742     0.00100
Br562      Br  0.28831317  0.85899079  0.05290504    -0.04200
C563        C  0.11359450  0.92132974  0.19593356    -0.11600
C564        C  0.12716296  0.94718915  0.19972480     0.03800
C565        C  0.11421278  0.96088209  0.20097802    -0.12200
C566        C  0.08780257  0.94906861  0.19850499     0.18700
C567        C  0.07418465  0.92306739  0.19488104    -0.09200
C568        C  0.08708431  0.90933196  0.19377535    -0.02200
H569        H  0.12478378  0.98085360  0.20377224     0.05200
C570        C  0.07514654  0.96458250  0.19889118     0.20700
H571        H  0.07658244  0.88949144  0.19075191     0.10400
C572        C  0.08107089  0.98310968  0.18963245    -0.15500
C573        C  0.06807228  0.99682668  0.18901944     0.03400
C574        C  0.04854860  0.99182392  0.19775321    -0.10900
C575        C  0.04324109  0.97383035  0.20726097    -0.00900
C576        C  0.05665790  0.96052838  0.20799739    -0.06100
H577        H  0.09540943  0.98638909  0.18262654     0.06400
H578        H  0.02861579  0.97014411  0.21416013     0.09800
Br579      Br  0.03843433  0.90600266  0.19049315    -0.05800
Br580      Br  0.16310972  0.96426416  0.20366288    -0.02700
Br581      Br  0.07647149  0.02050604  0.17546500     0.00100
Br582      Br  0.04949638  0.93737204  0.22166168    -0.04200
C583        C  0.26392249  0.95835408  0.12078360    -0.11600
C584        C  0.24753505  0.96830521  0.12346243     0.03800
C585        C  0.23080219  0.95891945  0.13370300    -0.12200
C586        C  0.23050140  0.94032781  0.14167759     0.18700
C587        C  0.24722555  0.93092356  0.13921849    -0.09200
C588        C  0.26340112  0.93966535  0.12882452    -0.02200
H589        H  0.21793799  0.96623288  0.13548232     0.05200
C590        C  0.21221005  0.93041751  0.15230387     0.20700
H591        H  0.27606104  0.93206678  0.12719715     0.10400
C592        C  0.19347333  0.90422742  0.15268909    -0.15500
C593        C  0.17581254  0.89404136  0.16250840     0.03400
C594        C  0.17648050  0.91027809  0.17214671    -0.10900
C595        C  0.19510836  0.93651706  0.17170716    -0.00900
C596        C  0.21295589  0.94661847  0.16196666    -0.06100
H597        H  0.19240260  0.89165528  0.14519538     0.06400
H598        H  0.19579544  0.94927758  0.17901376     0.09800
Br599      Br  0.24977570  0.90712436  0.15015464    -0.05800
Br600      Br  0.24673208  0.99465687  0.11375850    -0.02700
Br601      Br  0.15007268  0.85833132  0.16166945     0.00100
Br602      Br  0.23831914  0.98248532  0.16250503    -0.04200
C603        C  0.82726399  0.90755273  0.19037279    -0.11600
C604        C  0.83894997  0.92909767  0.19852345     0.03800
C605        C  0.86567124  0.94251358  0.20016168    -0.12200
C606        C  0.88132031  0.93515991  0.19390831     0.18700
C607        C  0.86995385  0.91334745  0.18624252    -0.09200
C608        C  0.84328364  0.89975524  0.18456490    -0.02200
H609        H  0.87444316  0.95934624  0.20608653     0.05200
C610        C  0.90955076  0.95177147  0.19468078     0.20700
H611        H  0.83521679  0.88327867  0.17842481     0.10400
C612        C  0.92319803  0.94829790  0.20431862    -0.15500
C613        C  0.94996460  0.96405851  0.20520799     0.03400
C614        C  0.96338480  0.98372642  0.19636346    -0.10900
C615        C  0.94952848  0.98740484  0.18688657    -0.00900
C616        C  0.92287848  0.97156640  0.18596840    -0.06100
H617        H  0.91298244  0.93335988  0.21117761     0.06400
H618        H  0.95953666  0.00235474  0.18000682     0.09800
Br619      Br  0.89031196  0.90204964  0.17752141    -0.05800
Br620      Br  0.82075891  0.94262365  0.20751806    -0.02700
Br621      Br  0.96696439  0.95890688  0.21907078     0.00100
Br622      Br  0.90536298  0.97750598  0.17261916    -0.04200
C623        C  0.72139305  0.75714227  0.11311959    -0.11600
C624        C  0.74377610  0.78162606  0.11252573     0.03800
C625        C  0.75084536  0.79828191  0.12277937    -0.12200
C626        C  0.73592324  0.79095920  0.13367738     0.18700
C627        C  0.71365597  0.76659889  0.13427404    -0.09200
C628        C  0.70650730  0.74999919  0.12405245    -0.02200
H629        H  0.76785157  0.81717121  0.12219472     0.05200
C630        C  0.74328228  0.80919701  0.14421208     0.20700
H631        H  0.68931693  0.73125839  0.12470842     0.10400
C632        C  0.73206099  0.82460898  0.14527369    -0.15500
C633        C  0.73831013  0.84192193  0.15518003     0.03400
C634        C  0.75637715  0.84418872  0.16424476    -0.10900
C635        C  0.76747223  0.82855090  0.16312649    -0.00900
C636        C  0.76090611  0.81104519  0.15330406    -0.06100
H637        H  0.71841134  0.82321743  0.13830150     0.06400
H638        H  0.78123824  0.82980705  0.16999430     0.09800
Br639      Br  0.69259242  0.75522985  0.14893767    -0.05800
Br640      Br  0.76426146  0.79406678  0.09769850    -0.02700
Br641      Br  0.72260434  0.86283535  0.15524920     0.00100
Br642      Br  0.77601923  0.78963748  0.15277302    -0.04200
C643        C  0.41504207  0.71395511  0.99155863    -0.11600
C644        C  0.43037536  0.70371812  0.99572492     0.03800
C645        C  0.45693537  0.71986857  0.99710120    -0.12200
C646        C  0.46872215  0.74617720  0.99450318     0.18700
C647        C  0.45357492  0.75649463  0.99052003    -0.09200
C648        C  0.42707811  0.74048076  0.98912256    -0.02200
H649        H  0.46855506  0.71181340  0.00013375     0.05200
C650        C  0.49700325  0.76216911  0.99521720     0.20700
H651        H  0.41590445  0.74890828  0.98595515     0.10400
C652        C  0.51096107  0.77190370  0.98416199    -0.15500
C653        C  0.53778581  0.78608925  0.98425002     0.03400
C654        C  0.55117801  0.79073454  0.99562314    -0.10900
C655        C  0.53713467  0.78091260  0.00669786    -0.00900
C656        C  0.51026375  0.76680637  0.00657992    -0.06100
H657        H  0.50086556  0.76795576  0.97534826     0.06400
H658        H  0.54712730  0.78438069  0.01552411     0.09800
Br659      Br  0.46813443  0.79241216  0.98702334    -0.05800
Br660      Br  0.41673868  0.66838554  0.00027985    -0.02700
Br661      Br  0.55472309  0.79652321  0.96840134     0.00100
Br662      Br  0.49253128  0.75479797  0.02215682    -0.04200
C663        C  0.67031678  0.73460855  0.05405933    -0.11600
C664        C  0.64743206  0.72077503  0.04704344     0.03800
C665        C  0.64064813  0.73365669  0.03833057    -0.12200
C666        C  0.65649667  0.76007136  0.03627386     0.18700
C667        C  0.67977095  0.77361837  0.04278486    -0.09200
C668        C  0.68649449  0.76094803  0.05158483    -0.02200
H669        H  0.62285354  0.72307843  0.03319176     0.05200
C670        C  0.64782087  0.77360449  0.02788900     0.20700
H671        H  0.70429969  0.77192680  0.05665871     0.10400
C672        C  0.63537667  0.78579432  0.03307047    -0.15500
C673        C  0.62656911  0.79858983  0.02549229     0.03400
C674        C  0.63037666  0.79951996  0.01252677    -0.10900
C675        C  0.64340656  0.78788111  0.00734705    -0.00900
C676        C  0.65201107  0.77482219  0.01494531    -0.06100
H677        H  0.63232126  0.78514370  0.04303402     0.06400
H678        H  0.64605514  0.78815681  0.99736471     0.09800
Br679      Br  0.70283502  0.80953370  0.03994723    -0.05800
Br680      Br  0.62510793  0.68428024  0.04840586    -0.02700
Br681      Br  0.60956379  0.81470677  0.03323822     0.00100
Br682      Br  0.66892460  0.75852090  0.00733049    -0.04200
C683        C  0.10345665  0.20424487  0.18310721    -0.11600
C684        C  0.10389016  0.19256188  0.19448485     0.03800
C685        C  0.09124126  0.16582134  0.19543118    -0.12200
C686        C  0.07789310  0.15011723  0.18530506     0.18700
C687        C  0.07659037  0.16154319  0.17410209    -0.09200
C688        C  0.08932711  0.18835946  0.17307479    -0.02200
H689        H  0.09184144  0.15715713  0.20416218     0.05200
C690        C  0.06490134  0.12191228  0.18693116     0.20700
H691        H  0.08852959  0.19677473  0.16430716     0.10400
C692        C  0.04478271  0.11012281  0.19558900    -0.15500
C693        C  0.03305097  0.08381909  0.19807418     0.03400
C694        C  0.04108205  0.06866384  0.19163423    -0.10900
C695        C  0.06159203  0.08057945  0.18315785    -0.00900
C696        C  0.07367858  0.10700839  0.18087516    -0.06100
H697        H  0.03858994  0.12161441  0.20066891     0.06400
H698        H  0.06839103  0.06931579  0.17834689     0.09800
Br699      Br  0.05721686  0.14138309  0.16007021    -0.05800
Br700      Br  0.12016333  0.21146372  0.20939027    -0.02700
Br701      Br  0.00811250  0.07026937  0.21125709     0.00100
Br702      Br  0.10315980  0.12210290  0.17011236    -0.04200
C703        C  0.07011875  0.32441134  0.11069460    -0.11600
C704        C  0.06553702  0.29903245  0.11162203     0.03800
C705        C  0.07507988  0.29191421  0.12182284    -0.12200
C706        C  0.08927853  0.30956031  0.13124629     0.18700
C707        C  0.09444706  0.33501174  0.13018717    -0.09200
C708        C  0.08488762  0.34218657  0.12002072    -0.02200
H709        H  0.07150728  0.27244487  0.12238770     0.05200
C710        C  0.09866992  0.30093873  0.14196418     0.20700
H711        H  0.08874946  0.36176169  0.11952525     0.10400
C712        C  0.12517762  0.31111922  0.14365627    -0.15500
C713        C  0.13457914  0.30207688  0.15315288     0.03400
C714        C  0.11723135  0.28209164  0.16110683    -0.10900
C715        C  0.09071278  0.27234528  0.15950957    -0.00900
C716        C  0.08142076  0.28168135  0.15014642    -0.06100
H717        H  0.13861425  0.32576715  0.13736219     0.06400
H718        H  0.07706088  0.25732268  0.16558484     0.09800
Br719      Br  0.11368149  0.36048460  0.14258521    -0.05800
Br720      Br  0.04765783  0.27339704  0.09907320    -0.02700
Br721      Br  0.17115723  0.31658765  0.15401328     0.00100
Br722      Br  0.04496147  0.26786325  0.14907729    -0.04200
C723        C  0.33616108  0.63030807  0.98336504    -0.11600
C724        C  0.34801485  0.61775593  0.97762907     0.03800
C725        C  0.33516051  0.59085597  0.97728021    -0.12200
C726        C  0.31036495  0.57621328  0.98224722     0.18700
C727        C  0.29787885  0.58864667  0.98714947    -0.09200
C728        C  0.31078229  0.61537437  0.98774989    -0.02200
H729        H  0.34461109  0.58130401  0.97323028     0.05200
C730        C  0.29834684  0.54807969  0.98314627     0.20700
H731        H  0.30100022  0.62443349  0.99196724     0.10400
C732        C  0.29822094  0.53734293  0.99473015    -0.15500
C733        C  0.28546353  0.51075230  0.99632088     0.03400
C734        C  0.27260236  0.49444461  0.98618553    -0.10900
C735        C  0.27348764  0.50518238  0.97446525    -0.00900
C736        C  0.28612069  0.53188547  0.97291583    -0.06100
H737        H  0.30780835  0.54974637  0.00260622     0.06400
H738        H  0.26359920  0.49280371  0.96662850     0.09800
Br739      Br  0.26317145  0.56982438  0.99317981    -0.05800
Br740      Br  0.38081013  0.63590948  0.96946625    -0.02700
Br741      Br  0.28690931  0.49771055  0.01241978     0.00100
Br742      Br  0.28509582  0.54547983  0.95692896    -0.04200
C743        C  0.10356209  0.37996606  0.05339918    -0.11600
C744        C  0.12523415  0.40506810  0.05364843     0.03800
C745        C  0.14480697  0.41242351  0.04476204    -0.12200
C746        C  0.14334178  0.39535212  0.03547090     0.18700
C747        C  0.12195412  0.37030832  0.03525855    -0.09200
C748        C  0.10243705  0.36282497  0.04416180    -0.02200
H749        H  0.16133717  0.43167232  0.04508236     0.05200
C750        C  0.16403817  0.40418187  0.02596009     0.20700
H751        H  0.08606147  0.34350197  0.04372482     0.10400
C752        C  0.18023580  0.39366748  0.02566844    -0.15500
C753        C  0.19998819  0.40178496  0.01680131     0.03400
C754        C  0.20371503  0.42070817  0.00798777    -0.10900
C755        C  0.18767455  0.43138204  0.00842208    -0.00900
C756        C  0.16799969  0.42328770  0.01724782    -0.06100
H757        H  0.17769220  0.37931071  0.03248454     0.06400
H758        H  0.19033331  0.44604190  0.00176314     0.09800
Br759      Br  0.11802139  0.34597433  0.02266865    -0.05800
Br760      Br  0.13009693  0.43004407  0.06607028    -0.02700
Br761      Br  0.22250504  0.38797260  0.01779664     0.00100
Br762      Br  0.14660536  0.43845574  0.01679244    -0.04200
C763        C  0.15624148  0.57256275  0.35251797    -0.11600
C764        C  0.17308174  0.59095650  0.34366359     0.03800
C765        C  0.19962694  0.60400112  0.34564461    -0.12200
C766        C  0.21015519  0.59948276  0.35625058     0.18700
C767        C  0.19377524  0.58190454  0.36521721    -0.09200
C768        C  0.16715990  0.56854435  0.36328860    -0.02200
H769        H  0.21229223  0.61772423  0.33876748     0.05200
C770        C  0.23838315  0.61344391  0.35760680     0.20700
H771        H  0.15502095  0.55499692  0.37032742     0.10400
C772        C  0.25089537  0.63894674  0.36169741    -0.15500
C773        C  0.27774851  0.65366554  0.36194154     0.03400
C774        C  0.29264741  0.64294583  0.35773941    -0.10900
C775        C  0.27987336  0.61702011  0.35400916    -0.00900
C776        C  0.25300562  0.60231511  0.35393019    -0.06100
H777        H  0.23965813  0.64748381  0.36465272     0.06400
H778        H  0.29076538  0.60826754  0.35083473     0.09800
Br779      Br  0.20699265  0.57588353  0.38027812    -0.05800
Br780      Br  0.16243392  0.59960309  0.32842894    -0.02700
Br781      Br  0.29239327  0.68768849  0.36872997     0.00100
Br782      Br  0.23698323  0.56737349  0.34832711    -0.04200
C783        C  0.04510625  0.61760599  0.28271802    -0.11600
C784        C  0.06643199  0.63141548  0.29069567     0.03800
C785        C  0.07218294  0.61827211  0.29970483    -0.12200
C786        C  0.05708780  0.59153196  0.30096496     0.18700
C787        C  0.03597683  0.57774947  0.29303166    -0.09200
C788        C  0.03013363  0.59076553  0.28403982    -0.02200
H789        H  0.08845158  0.62898600  0.30584560     0.05200
C790        C  0.06392566  0.57840479  0.31053294     0.20700
H791        H  0.01378195  0.57972787  0.27799681     0.10400
C792        C  0.04969896  0.57009314  0.32162926    -0.15500
C793        C  0.05709837  0.55948005  0.33126652     0.03400
C794        C  0.07907975  0.55705472  0.32980522    -0.10900
C795        C  0.09257343  0.56447767  0.31845802    -0.00900
C796        C  0.08523998  0.57512611  0.30890032    -0.06100
H797        H  0.03326696  0.57263907  0.32294058     0.06400
H798        H  0.10928416  0.56243379  0.31709592     0.09800
Br799      Br  0.01498338  0.54108978  0.29396724    -0.05800
Br800      Br  0.08767677  0.66815105  0.29034667    -0.02700
Br801      Br  0.03792869  0.55094108  0.34652335     0.00100
Br802      Br  0.10509490  0.58527670  0.29382598    -0.04200
C803        C  0.06444334  0.72386149  0.23391002    -0.11600
C804        C  0.05694627  0.72693981  0.22184903     0.03800
C805        C  0.07031881  0.75073328  0.21584383    -0.12200
C806        C  0.09129268  0.77174055  0.22156015     0.18700
C807        C  0.09926400  0.76851301  0.23342321    -0.09200
C808        C  0.08600349  0.74470360  0.23943246    -0.02200
H809        H  0.06395754  0.75302060  0.20676401     0.05200
C810        C  0.10299309  0.79726702  0.21547478     0.20700
H811        H  0.09211926  0.74274196  0.24863109     0.10400
C812        C  0.10079246  0.81681461  0.22134314    -0.15500
C813        C  0.11022831  0.84084582  0.21577253     0.03400
C814        C  0.12175457  0.84562444  0.20380737    -0.10900
C815        C  0.12432583  0.82606323  0.19803660    -0.00900
C816        C  0.11504853  0.80207593  0.20373958    -0.06100
H817        H  0.09149937  0.81328075  0.23036620     0.06400
H818        H  0.13318656  0.82921992  0.18892255     0.09800
Br819      Br  0.12801126  0.79605888  0.24187298    -0.05800
Br820      Br  0.02911911  0.69947688  0.21284319    -0.02700
Br821      Br  0.10756379  0.86619237  0.22551733     0.00100
Br822      Br  0.11962549  0.77666115  0.19522702    -0.04200
C823        C  0.01199100  0.39368749  0.10265536    -0.11600
C824        C  0.99210164  0.38116785  0.11162100     0.03800
C825        C  0.98437497  0.39540972  0.11887078    -0.12200
C826        C  0.99559345  0.42197044  0.11734813     0.18700
C827        C  0.01492669  0.43450305  0.10833458    -0.09200
C828        C  0.02305135  0.42044074  0.10113602    -0.02200
H829        H  0.96922096  0.38561891  0.12569011     0.05200
C830        C  0.98615079  0.43581039  0.12515031     0.20700
H831        H  0.03813086  0.43055658  0.09433068     0.10400
C832        C  0.99476707  0.44216465  0.13747462    -0.15500
C833        C  0.98344718  0.45174800  0.14568929     0.03400
C834        C  0.96276373  0.45472586  0.14160885    -0.10900
C835        C  0.95511183  0.44947002  0.12907062    -0.00900
C836        C  0.96660557  0.44014688  0.12088214    -0.06100
H837        H  0.00972999  0.43875455  0.14083998     0.06400
H838        H  0.93957917  0.45194717  0.12568419     0.09800
Br839      Br  0.03062968  0.47075271  0.10558290    -0.05800
Br840      Br  0.97383724  0.34472992  0.11451132    -0.02700
Br841      Br  0.99560684  0.45798116  0.16256308     0.00100
Br842      Br  0.95396175  0.43213740  0.10413533    -0.04200
C843        C  0.95397750  0.49994240  0.17827795    -0.11600
C844        C  0.94342615  0.49386681  0.19039212     0.03800
C845        C  0.95238035  0.51285382  0.19959085    -0.12200
C846        C  0.97179264  0.53804081  0.19697047     0.18700
C847        C  0.98314313  0.54391490  0.18504798    -0.09200
C848        C  0.97427107  0.52487679  0.17582380    -0.02200
H849        H  0.94402645  0.50801423  0.20882125     0.05200
C850        C  0.97989029  0.55775513  0.20685516     0.20700
H851        H  0.98252597  0.52983934  0.16657945     0.10400
C852        C  0.00397525  0.56718762  0.21245542    -0.15500
C853        C  0.01196530  0.58519685  0.22211529     0.03400
C854        C  0.99570773  0.59440365  0.22626851    -0.10900
C855        C  0.97140974  0.58458275  0.22069952    -0.00900
C856        C  0.96343612  0.56640573  0.21112014    -0.06100
H857        H  0.01648052  0.56016368  0.20940738     0.06400
H858        H  0.95858326  0.59123782  0.22370715     0.09800
Br859      Br  0.00972068  0.57796734  0.18073903    -0.05800
Br860      Br  0.91746042  0.45977211  0.19508422    -0.02700
Br861      Br  0.04466807  0.59498247  0.22953041     0.00100
Br862      Br  0.93010833  0.55436020  0.20395160    -0.04200
C863        C  0.43998191  0.57528820  0.35169851    -0.11600
C864        C  0.42216846  0.57509646  0.34298445     0.03800
C865        C  0.41063562  0.58983216  0.34520868    -0.12200
C866        C  0.41668498  0.60540252  0.35577544     0.18700
C867        C  0.43408838  0.60559136  0.36453213    -0.09200
C868        C  0.44548246  0.59059019  0.36247798    -0.02200
H869        H  0.39721376  0.58966588  0.33844216     0.05200
C870        C  0.40487997  0.62163349  0.35711214     0.20700
H871        H  0.45898471  0.59121649  0.36931786     0.10400
C872        C  0.38610380  0.61577607  0.36627932    -0.15500
C873        C  0.37215021  0.62861888  0.36661183     0.03400
C874        C  0.37669666  0.64735473  0.35753181    -0.10900
C875        C  0.39644791  0.65411211  0.34880342    -0.00900
C876        C  0.41048298  0.64143844  0.34853547    -0.06100
H877        H  0.38194324  0.60082171  0.37302672     0.06400
H878        H  0.40054808  0.66886438  0.34194206     0.09800
Br879      Br  0.44383087  0.62696804  0.37907221    -0.05800
Br880      Br  0.41345369  0.55699009  0.32737341    -0.02700
Br881      Br  0.34813820  0.62077911  0.37998724     0.00100
Br882      Br  0.43707391  0.65173350  0.33624310    -0.04200
C883        C  0.39883336  0.41844262  0.27941600    -0.11600
C884        C  0.40943300  0.41365833  0.29015798     0.03800
C885        C  0.41950002  0.43186934  0.29975334    -0.12200
C886        C  0.41905154  0.45482377  0.29899037     0.18700
C887        C  0.40854029  0.45969984  0.28836614    -0.09200
C888        C  0.39850987  0.44160025  0.27872725    -0.02200
H889        H  0.42734041  0.42792491  0.30795879     0.05200
C890        C  0.42922309  0.47322513  0.30948445     0.20700
H891        H  0.39060859  0.44578314  0.27062279     0.10400
C892        C  0.45582579  0.48970574  0.31064835    -0.15500
C893        C  0.46600564  0.50784386  0.32028178     0.03400
C894        C  0.44936843  0.50947988  0.32905325    -0.10900
C895        C  0.42272876  0.49267416  0.32790515    -0.00900
C896        C  0.41263973  0.47461142  0.31828016    -0.06100
H897        H  0.46868915  0.48883951  0.30384720     0.06400
H898        H  0.40962893  0.49365523  0.33451955     0.09800
Br899      Br  0.40773758  0.49096466  0.28660542    -0.05800
Br900      Br  0.40953100  0.38220224  0.29282942    -0.02700
Br901      Br  0.50243650  0.53123226  0.32023452     0.00100
Br902      Br  0.37609410  0.45217568  0.31747574    -0.04200
C903        C  0.29674901  0.34401503  0.22760200    -0.11600
C904        C  0.27337873  0.33765353  0.23365851     0.03800
C905        C  0.25059695  0.32783328  0.22674672    -0.12200
C906        C  0.25057696  0.32416688  0.21385781     0.18700
C907        C  0.27385305  0.33105307  0.20777249    -0.09200
C908        C  0.29661103  0.34078915  0.21462764    -0.02200
H909        H  0.23263897  0.32222440  0.23150680     0.05200
C910        C  0.22592034  0.31122735  0.20701835     0.20700
H911        H  0.31426745  0.34552337  0.20978859     0.10400
C912        C  0.21534182  0.32554113  0.20227120    -0.15500
C913        C  0.19236070  0.31369134  0.19540865     0.03400
C914        C  0.17969941  0.28691078  0.19307735    -0.10900
C915        C  0.19046546  0.27278810  0.19806929    -0.00900
C916        C  0.21312004  0.28461041  0.20500480    -0.06100
H917        H  0.22500860  0.34605843  0.20394914     0.06400
H918        H  0.18130941  0.25225294  0.19655513     0.09800
Br919      Br  0.27520005  0.32669015  0.19014363    -0.05800
Br920      Br  0.27063769  0.33961271  0.25139768    -0.02700
Br921      Br  0.17896406  0.33513558  0.19023532     0.00100
Br922      Br  0.22584697  0.26355630  0.21162778    -0.04200
C923        C  0.58620360  0.51925553  0.14306166    -0.11600
C924        C  0.57596189  0.53596472  0.14363489     0.03800
C925        C  0.58586870  0.55762800  0.13584221    -0.12200
C926        C  0.60588887  0.56323587  0.12747365     0.18700
C927        C  0.61572217  0.54657076  0.12666952    -0.09200
C928        C  0.60581288  0.52486414  0.13426984    -0.02200
H929        H  0.57840455  0.57060930  0.13656074     0.05200
C930        C  0.61813234  0.58765936  0.12043649     0.20700
H931        H  0.61411340  0.51264461  0.13340498     0.10400
C932        C  0.64014997  0.60869506  0.12541889    -0.15500
C933        C  0.65427140  0.63129463  0.11855440     0.03400
C934        C  0.64645113  0.63310337  0.10635771    -0.10900
C935        C  0.62362437  0.61236524  0.10162179    -0.00900
C936        C  0.60956578  0.58971405  0.10854421    -0.06100
H937        H  0.64667764  0.60729943  0.13460637     0.06400
H938        H  0.61718620  0.61339053  0.09235622     0.09800
Br939      Br  0.64354501  0.55331991  0.11562676    -0.05800
Br940      Br  0.54949544  0.53174698  0.15503048    -0.02700
Br941      Br  0.68356966  0.65904701  0.12663467     0.00100
Br942      Br  0.57946410  0.56166450  0.10123944    -0.04200
C943        C  0.53137631  0.45942735  0.17673303    -0.11600
C944        C  0.50584758  0.45152079  0.17332481     0.03800
C945        C  0.48614506  0.44029573  0.18224884    -0.12200
C946        C  0.49152681  0.43688856  0.19460189     0.18700
C947        C  0.51711319  0.44546757  0.19805935    -0.09200
C948        C  0.53671394  0.45647193  0.18915624    -0.02200
H949        H  0.46651283  0.43370575  0.17949676     0.05200
C950        C  0.47025221  0.42385729  0.20372015     0.20700
H951        H  0.55622007  0.46256680  0.19192839     0.10400
C952        C  0.46215447  0.39854774  0.20734291    -0.15500
C953        C  0.44235717  0.38573573  0.21609154     0.03400
C954        C  0.43005867  0.39832694  0.22137659    -0.10900
C955        C  0.43842079  0.42378134  0.21766711    -0.00900
C956        C  0.45830714  0.43650964  0.20900186    -0.06100
H957        H  0.47135078  0.38871123  0.20333253     0.06400
H958        H  0.42963480  0.43406170  0.22161033     0.09800
Br959      Br  0.52618937  0.44270450  0.21486993    -0.05800
Br960      Br  0.49660455  0.45365014  0.15646655    -0.02700
Br961      Br  0.43311903  0.35106821  0.22006400     0.00100
Br962      Br  0.46924297  0.47154053  0.20497290    -0.04200
C963        C  0.74003693  0.36912788  0.15269993    -0.11600
C964        C  0.75331347  0.35887750  0.15914866     0.03800
C965        C  0.78022601  0.37218699  0.15922348    -0.12200
C966        C  0.79444912  0.39592291  0.15317413     0.18700
C967        C  0.78127827  0.40603367  0.14661753    -0.09200
C968        C  0.75438064  0.39267921  0.14644216    -0.02200
H969        H  0.79017299  0.36424642  0.16429274     0.05200
C970        C  0.82291428  0.41007736  0.15409933     0.20700
H971        H  0.74461525  0.40088782  0.14143373     0.10400
C972        C  0.83780180  0.41498872  0.14329476    -0.15500
C973        C  0.86471836  0.42868013  0.14381782     0.03400
C974        C  0.87731972  0.43726995  0.15543044    -0.10900
C975        C  0.86223660  0.43216938  0.16622578    -0.00900
C976        C  0.83539672  0.41884129  0.16564629    -0.06100
H977        H  0.82839260  0.40843651  0.13436603     0.06400
H978        H  0.87132846  0.43858447  0.17523076     0.09800
Br979      Br  0.79902455  0.43859083  0.13826499    -0.05800
Br980      Br  0.73619825  0.32808516  0.16895181    -0.02700
Br981      Br  0.88264170  0.43645830  0.12819599     0.00100
Br982      Br  0.81677081  0.41411857  0.18087332    -0.04200
C983        C  0.66208508  0.37594423  0.15332489    -0.11600
C984        C  0.63920756  0.36965742  0.14687238     0.03800
C985        C  0.62866048  0.38565174  0.14783963    -0.12200
C986        C  0.64052071  0.40802782  0.15509812     0.18700
C987        C  0.66341286  0.41446241  0.16145109    -0.09200
C988        C  0.67404964  0.39856826  0.16047394    -0.02200
H989        H  0.61106620  0.38061129  0.14289874     0.05200
C990        C  0.62820085  0.42387572  0.15622040     0.20700
H991        H  0.69163597  0.40379492  0.16546459     0.10400
C992        C  0.61755835  0.42486477  0.16766761    -0.15500
C993        C  0.60470683  0.43864522  0.16900188     0.03400
C994        C  0.60176156  0.45136823  0.15860026    -0.10900
C995        C  0.61312568  0.45087986  0.14721547    -0.00900
C996        C  0.62628973  0.43737065  0.14598387    -0.06100
H997        H  0.61928942  0.41481724  0.17563774     0.06400
H998        H  0.61146881  0.46073205  0.13914681     0.09800
Br999      Br  0.68110871  0.44501441  0.17136105    -0.05800
Br1000     Br  0.62220192  0.34050048  0.13600636    -0.02700
Br1001     Br  0.59322299  0.44036742  0.18548603     0.00100
Br1002     Br  0.64188998  0.43838462  0.13024088    -0.04200
C1003       C  0.43632030  0.86231796  0.34726963    -0.11600
C1004       C  0.43324311  0.84655523  0.33684655     0.03800
C1005       C  0.41938000  0.81983173  0.33805778    -0.12200
C1006       C  0.40837923  0.80826230  0.34945152     0.18700
C1007       C  0.41096762  0.82374593  0.35977748    -0.09200
C1008       C  0.42467347  0.85049702  0.35861019    -0.02200
H1009       H  0.41738792  0.80794789  0.33008262     0.05200
C1010       C  0.39557656  0.78005804  0.35053035     0.20700
H1011       H  0.42672295  0.86207159  0.36671409     0.10400
C1012       C  0.40819566  0.76933931  0.35688305    -0.15500
C1013       C  0.39704969  0.74275599  0.35805962     0.03400
C1014       C  0.37263042  0.72624770  0.35273702    -0.10900
C1015       C  0.36009322  0.73716620  0.34631532    -0.00900
C1016       C  0.37142983  0.76381996  0.34512784    -0.06100
H1017       H  0.42683001  0.78182259  0.36104060     0.06400
H1018       H  0.34139648  0.72493060  0.34216991     0.09800
Br1019     Br  0.39614561  0.80913850  0.37564415    -0.05800
Br1020     Br  0.44641448  0.85971925  0.32052296    -0.02700
Br1021     Br  0.41579670  0.73087585  0.36777685     0.00100
Br1022     Br  0.35305760  0.77727460  0.33633686    -0.04200
C1023       C  0.50826855  0.93974369  0.32918111    -0.11600
C1024       C  0.51324807  0.96058406  0.32135372     0.03800
C1025       C  0.53223770  0.96854726  0.31210832    -0.12200
C1026       C  0.54642072  0.95607742  0.31055917     0.18700
C1027       C  0.54200005  0.93585346  0.31856904    -0.09200
C1028       C  0.52301535  0.92778138  0.32772810    -0.02200
H1029       H  0.53552302  0.98404976  0.30592219     0.05200
C1030       C  0.56512449  0.96361274  0.30026887     0.20700
H1031       H  0.51950255  0.91180591  0.33362659     0.10400
C1032       C  0.59120411  0.98061535  0.30261883    -0.15500
C1033       C  0.60958925  0.98703322  0.29322554     0.03400
C1034       C  0.60186677  0.97626564  0.28120162    -0.10900
C1035       C  0.57570678  0.95903420  0.27894132    -0.00900
C1036       C  0.55737302  0.95279788  0.28833589    -0.06100
H1037       H  0.59730757  0.98860338  0.31186865     0.06400
H1038       H  0.56942755  0.95066343  0.26977327     0.09800
Br1039     Br  0.56085712  0.91811563  0.31703069    -0.05800
Br1040     Br  0.49343210  0.97743927  0.32204273    -0.02700
Br1041     Br  0.64498746  0.00918308  0.29767912     0.00100
Br1042     Br  0.52197360  0.92922239  0.28454429    -0.04200
C1043       C  0.67408099  0.94589273  0.22971088    -0.11600
C1044       C  0.68259094  0.93059951  0.23568410     0.03800
C1045       C  0.69293933  0.91835722  0.22859955    -0.12200
C1046       C  0.69486935  0.92091469  0.21559599     0.18700
C1047       C  0.68496824  0.93483048  0.20959906    -0.09200
C1048       C  0.67494138  0.94733105  0.21663914    -0.02200
H1049       H  0.70068265  0.90781631  0.23331000     0.05200
C1050       C  0.71017317  0.91192751  0.20862301     0.20700
H1051       H  0.66829827  0.95875775  0.21186154     0.10400
C1052       C  0.69947517  0.88595335  0.20538680    -0.15500
C1053       C  0.71406072  0.87728647  0.19895610     0.03400
C1054       C  0.73999148  0.89478686  0.19581413    -0.10900
C1055       C  0.75037951  0.92077478  0.19901604    -0.00900
C1056       C  0.73580810  0.92936542  0.20531761    -0.06100
H1057       H  0.67977006  0.87237548  0.20792698     0.06400
H1058       H  0.77004018  0.93463662  0.19656839     0.09800
Br1059     Br  0.68575746  0.93807825  0.19181623    -0.05800
Br1060     Br  0.68323197  0.92790869  0.25347877    -0.02700
Br1061     Br  0.69790188  0.84124946  0.19539776     0.00100
Br1062     Br  0.75198099  0.96516764  0.20944708    -0.04200
C1063       C  0.39230295  0.01015154  0.11181355    -0.11600
C1064       C  0.39735073  0.02456649  0.12295480     0.03800
C1065       C  0.42098013  0.03396140  0.12906611    -0.12200
C1066       C  0.44010334  0.02949192  0.12436821     0.18700
C1067       C  0.43488596  0.01439895  0.11355985    -0.09200
C1068       C  0.41118663  0.00482730  0.10741534    -0.02200
H1069       H  0.42464017  0.04522298  0.13745008     0.05200
C1070       C  0.46547290  0.04157684  0.13078075     0.20700
H1071       H  0.40779145  0.99368449  0.09901654     0.10400
C1072       C  0.46750107  0.03253582  0.14252141    -0.15500
C1073       C  0.49029234  0.04534418  0.14949770     0.03400
C1074       C  0.51166968  0.06802976  0.14480625    -0.10900
C1075       C  0.50965376  0.07666834  0.13291343    -0.00900
C1076       C  0.48696352  0.06367160  0.12592489    -0.06100
H1077       H  0.45098000  0.01576446  0.14642972     0.06400
H1078       H  0.52572658  0.09393039  0.12908430     0.09800
Br1079     Br  0.45958027  0.00642575  0.10685913    -0.05800
Br1080     Br  0.37288836  0.03182742  0.13067694    -0.02700
Br1081     Br  0.48988502  0.03196913  0.16576461     0.00100
Br1082     Br  0.48572709  0.07771538  0.11008518    -0.04200
C1083       C  0.65448385  0.29044361  0.15258873    -0.11600
C1084       C  0.66114894  0.27451881  0.14581090     0.03800
C1085       C  0.64592237  0.24777371  0.14672907    -0.12200
C1086       C  0.62376605  0.23630318  0.15417718     0.18700
C1087       C  0.61680945  0.25211725  0.16077451    -0.09200
C1088       C  0.63203989  0.27888694  0.15989639    -0.02200
H1089       H  0.65140592  0.23579558  0.14158261     0.05200
C1090       C  0.60873534  0.20788301  0.15524124     0.20700
H1091       H  0.62650892  0.29072960  0.16512887     0.10400
C1092       C  0.60811443  0.19640861  0.16667639    -0.15500
C1093       C  0.59495967  0.16967286  0.16801212     0.03400
C1094       C  0.58200021  0.15367548  0.15768774    -0.10900
C1095       C  0.58239779  0.16529731  0.14627439    -0.00900
C1096       C  0.59576707  0.19208519  0.14496885    -0.06100
H1097       H  0.61807280  0.20838412  0.17462060     0.06400
H1098       H  0.57273494  0.15351130  0.13823970     0.09800
Br1099     Br  0.58644942  0.23806196  0.17092160    -0.05800
Br1100     Br  0.68978948  0.28789193  0.13453077    -0.02700
Br1101     Br  0.59473759  0.15674749  0.18440000     0.00100
Br1102     Br  0.59559442  0.20620075  0.12898842    -0.04200
C1103       C  0.62570082  0.02870183  0.22309077    -0.11600
C1104       C  0.60461016  0.03218644  0.22553196     0.03800
C1105       C  0.59474300  0.04073573  0.21604236    -0.12200
C1106       C  0.60502943  0.04521608  0.20394322     0.18700
C1107       C  0.62585694  0.04131741  0.20149419    -0.09200
C1108       C  0.63621827  0.03355922  0.21106229    -0.02200
H1109       H  0.57906362  0.04410471  0.21814306     0.05200
C1110       C  0.59491413  0.05534728  0.19418969     0.20700
H1111       H  0.65211649  0.03050890  0.20898561     0.10400
C1112       C  0.61169711  0.07914093  0.18871495    -0.15500
C1113       C  0.60338722  0.08947593  0.17940078     0.03400
C1114       C  0.57724748  0.07640176  0.17565525    -0.10900
C1115       C  0.56048963  0.05240354  0.18108703    -0.00900
C1116       C  0.56907524  0.04184518  0.19022971    -0.06100
H1117       H  0.63163156  0.08967724  0.19162098     0.06400
H1118       H  0.54046777  0.04189619  0.17837120     0.09800
Br1119     Br  0.63995632  0.04489607  0.18508019    -0.05800
Br1120     Br  0.58939594  0.02681692  0.24177778    -0.02700
Br1121     Br  0.62953918  0.12062416  0.17176320     0.00100
Br1122     Br  0.54488592  0.00862505  0.19673074    -0.04200
C1123       C  0.96887277  0.69882412  0.88756662    -0.11600
C1124       C  0.94433012  0.68285260  0.88216291     0.03800
C1125       C  0.93499730  0.69267231  0.87302431    -0.12200
C1126       C  0.94958474  0.71811729  0.86887626     0.18700
C1127       C  0.97392034  0.73409966  0.87425080    -0.09200
C1128       C  0.98325547  0.72446004  0.88347275    -0.02200
H1129       H  0.91609595  0.68028887  0.86909822     0.05200
C1130       C  0.93888895  0.72772353  0.85913968     0.20700
H1131       H  0.00211021  0.73714999  0.88735968     0.10400
C1132       C  0.93439161  0.74786002  0.86202462    -0.15500
C1133       C  0.92497055  0.75786534  0.85303576     0.03400
C1134       C  0.91963396  0.74758959  0.84087896    -0.10900
C1135       C  0.92310874  0.72676812  0.83812349    -0.00900
C1136       C  0.93272840  0.71688539  0.84708939    -0.06100
H1137       H  0.93825207  0.75584895  0.87133145     0.06400
H1138       H  0.91906997  0.71865394  0.82884266     0.09800
Br1139     Br  0.99569125  0.76899940  0.86898852    -0.05800
Br1140     Br  0.92208460  0.64749044  0.88663030    -0.02700
Br1141     Br  0.91842308  0.78460359  0.85807075     0.00100
Br1142     Br  0.93826012  0.68943169  0.84216472    -0.04200
C1143       C  0.07049355  0.71607460  0.93920421    -0.11600
C1144       C  0.08808755  0.74277693  0.93803108     0.03800
C1145       C  0.10880689  0.75508322  0.94635373    -0.12200
C1146       C  0.11258002  0.74132193  0.95583189     0.18700
C1147       C  0.09525554  0.71485675  0.95698977    -0.09200
C1148       C  0.07449092  0.70255189  0.94880464    -0.02200
H1149       H  0.12239119  0.77540221  0.94526357     0.05200
C1150       C  0.13572543  0.75418178  0.96384157     0.20700
H1151       H  0.06148143  0.68212601  0.94994974     0.10400
C1152       C  0.13397958  0.76209688  0.97592816    -0.15500
C1153       C  0.15504519  0.77185412  0.98410382     0.03400
C1154       C  0.17841216  0.77389299  0.98015821    -0.10900
C1155       C  0.18010244  0.76646624  0.96793167    -0.00900
C1156       C  0.15908214  0.75662291  0.95984853    -0.06100
H1157       H  0.11590144  0.75986546  0.97914270     0.06400
H1158       H  0.19783025  0.76795932  0.96466985     0.09800
Br1159     Br  0.09988823  0.69451151  0.96931774    -0.05800
Br1160     Br  0.08604942  0.76350400  0.92501676    -0.02700
Br1161     Br  0.14990904  0.77969442  0.00080884     0.00100
Br1162     Br  0.16265319  0.74534041  0.94364127    -0.04200
C1163       C  0.79756987  0.61544382  0.02740000    -0.11600
C1164       C  0.80289814  0.64049184  0.02416207     0.03800
C1165       C  0.79256514  0.65265836  0.03131664    -0.12200
C1166       C  0.77702202  0.64053677  0.04170020     0.18700
C1167       C  0.77213458  0.61602812  0.04512504    -0.09200
C1168       C  0.78242077  0.60384592  0.03809115    -0.02200
H1169       H  0.79620515  0.67152539  0.02859847     0.05200
C1170       C  0.76443694  0.65277366  0.04834011     0.20700
H1171       H  0.77804782  0.58483560  0.04097694     0.10400
C1172       C  0.74109186  0.64917847  0.04378561    -0.15500
C1173       C  0.72764597  0.65906834  0.05011807     0.03400
C1174       C  0.73760202  0.67291968  0.06136300    -0.10900
C1175       C  0.76144815  0.67705129  0.06569624    -0.00900
C1176       C  0.77477785  0.66703098  0.05931404    -0.06100
H1177       H  0.73313797  0.63833680  0.03527253     0.06400
H1178       H  0.76954810  0.68765480  0.07424672     0.09800
Br1179     Br  0.75061894  0.59801250  0.05908723    -0.05800
Br1180     Br  0.82266027  0.65900808  0.00985091    -0.02700
Br1181     Br  0.69632883  0.65343505  0.04252478     0.00100
Br1182     Br  0.80679572  0.67281332  0.06596975    -0.04200
C1183       C  0.71064649  0.39560473  0.02599167    -0.11600
C1184       C  0.73311353  0.40991068  0.03316550     0.03800
C1185       C  0.74723961  0.43666291  0.03207806    -0.12200
C1186       C  0.73935720  0.44944729  0.02390182     0.18700
C1187       C  0.71658479  0.43531773  0.01701689    -0.09200
C1188       C  0.70230122  0.40860535  0.01817234    -0.02200
H1189       H  0.76466014  0.44751945  0.03747489     0.05200
C1190       C  0.75578918  0.47736170  0.02211770     0.20700
H1191       H  0.68510673  0.39789142  0.01260651     0.10400
C1192       C  0.77156830  0.48632946  0.01159098    -0.15500
C1193       C  0.78659778  0.51261109  0.00912899     0.03400
C1194       C  0.78584130  0.53066830  0.01737687    -0.10900
C1195       C  0.77033026  0.52129424  0.02813654    -0.00900
C1196       C  0.75549657  0.49498873  0.03054353    -0.06100
H1197       H  0.77189407  0.47266010  0.00513244     0.06400
H1198       H  0.76948047  0.53443573  0.03474812     0.09800
Br1199     Br  0.70466161  0.45175751  0.00575026    -0.05800
Br1200     Br  0.74495695  0.39410436  0.04487386    -0.02700
Br1201     Br  0.80654389  0.52135755  0.99408710     0.00100
Br1202     Br  0.73454591  0.48391327  0.04525158    -0.04200
C1203       C  0.94524367  0.64496708  0.94585260    -0.11600
C1204       C  0.93948197  0.62406834  0.95383166     0.03800
C1205       C  0.92114666  0.61737214  0.96331899    -0.12200
C1206       C  0.90826697  0.63110841  0.96513311     0.18700
C1207       C  0.91442001  0.65230820  0.95742005    -0.09200
C1208       C  0.93271835  0.65905340  0.94793428    -0.02200
H1209       H  0.91688571  0.60129474  0.96935417     0.05200
C1210       C  0.88819740  0.62270235  0.97495534     0.20700
H1211       H  0.93686769  0.67524649  0.94201511     0.10400
C1212       C  0.89229123  0.63820691  0.98546789    -0.15500
C1213       C  0.87399005  0.63022200  0.99508184     0.03400
C1214       C  0.85092654  0.60631986  0.99420942    -0.10900
C1215       C  0.84681762  0.59117995  0.98354236    -0.00900
C1216       C  0.86516006  0.59899086  0.97406519    -0.06100
H1217       H  0.91010320  0.65636892  0.98632267     0.06400
H1218       H  0.82911896  0.57300292  0.98253284     0.09800
Br1219     Br  0.89761216  0.67202819  0.95915298    -0.05800
Br1220     Br  0.95679006  0.60471155  0.95282066    -0.02700
Br1221     Br  0.88264941  0.65182303  0.00949929     0.00100
Br1222     Br  0.85763144  0.57658113  0.96002630    -0.04200
C1223       C  0.93375253  0.82368133  0.81726153    -0.11600
C1224       C  0.92464208  0.83747031  0.81028142     0.03800
C1225       C  0.94008888  0.86405800  0.80875783    -0.12200
C1226       C  0.96428709  0.87784449  0.81438854     0.18700
C1227       C  0.97321080  0.86449266  0.82163415    -0.09200
C1228       C  0.95827238  0.83774247  0.82280475    -0.02200
H1229       H  0.93270327  0.87430303  0.80350659     0.05200
C1230       C  0.97817252  0.90630889  0.81371649     0.20700
H1231       H  0.96575088  0.82803017  0.82838903     0.10400
C1232       C  0.96635746  0.91917417  0.81884750    -0.15500
C1233       C  0.97790352  0.94588007  0.81816295     0.03400
C1234       C  0.00201612  0.96045294  0.81220102    -0.10900
C1235       C  0.01394939  0.94751137  0.80716121    -0.00900
C1236       C  0.00214542  0.92070830  0.80773338    -0.06100
H1237       H  0.94792995  0.90827275  0.82348048     0.06400
H1238       H  0.03228549  0.95822920  0.80243359     0.09800
Br1239     Br  0.00449055  0.88204135  0.83105178    -0.05800
Br1240     Br  0.89060017  0.82261149  0.80357881    -0.02700
Br1241     Br  0.95996913  0.96083447  0.82617053     0.00100
Br1242     Br  0.01884393  0.90474194  0.79954267    -0.04200
C1243       C  0.99742509  0.03949760  0.80851913    -0.11600
C1244       C  0.97305735  0.02802900  0.80272511     0.03800
C1245       C  0.95801740  0.03960757  0.80364922    -0.12200
C1246       C  0.96703094  0.06295426  0.80995019     0.18700
C1247       C  0.99180662  0.07506459  0.81522953    -0.09200
C1248       C  0.00673582  0.06330696  0.81450461    -0.02200
H1249       H  0.93914836  0.03035447  0.79940091     0.05200
C1250       C  0.95007846  0.07404205  0.81110817     0.20700
H1251       H  0.02549551  0.07260212  0.81886897     0.10400
C1252       C  0.94141105  0.07614501  0.82294304    -0.15500
C1253       C  0.92554598  0.08672325  0.82444770     0.03400
C1254       C  0.91790919  0.09526949  0.81392173    -0.10900
C1255       C  0.92634292  0.09279467  0.80206847    -0.00900
C1256       C  0.94216557  0.08219159  0.80058978    -0.06100
H1257       H  0.94731964  0.06980951  0.83107823     0.06400
H1258       H  0.92073765  0.09932412  0.79389752     0.09800
Br1259     Br  0.00628718  0.10787186  0.82329926    -0.05800
Br1260     Br  0.95975972  0.99751958  0.79273734    -0.02700
Br1261     Br  0.91681503  0.09077606  0.84117346     0.00100
Br1262     Br  0.95330788  0.08027926  0.78407022    -0.04200
C1263       C  0.84826635  0.10309500  0.83359016    -0.11600
C1264       C  0.84237568  0.11943660  0.84054657     0.03800
C1265       C  0.82338916  0.10913090  0.84983612    -0.12200
C1266       C  0.81000671  0.08273058  0.85243702     0.18700
C1267       C  0.81510996  0.06630139  0.84522971    -0.09200
C1268       C  0.83415490  0.07651123  0.83601497    -0.02200
H1269       H  0.81945201  0.12189983  0.85528879     0.05200
C1270       C  0.79090531  0.07280826  0.86272539     0.20700
H1271       H  0.83795835  0.06348975  0.83070937     0.10400
C1272       C  0.76791945  0.07315621  0.86142708    -0.15500
C1273       C  0.74966403  0.06451198  0.87103862     0.03400
C1274       C  0.75424459  0.05519361  0.88226549    -0.10900
C1275       C  0.77722472  0.05466885  0.88347658    -0.00900
C1276       C  0.79559290  0.06366558  0.87391668    -0.06100
H1277       H  0.76414657  0.08013694  0.85287324     0.06400
H1278       H  0.78129260  0.04795335  0.89203568     0.09800
Br1279     Br  0.79619909  0.02973028  0.84746187    -0.05800
Br1280     Br  0.86059363  0.15607023  0.83862897    -0.02700
Br1281     Br  0.71850732  0.06500356  0.86793918     0.00100
Br1282     Br  0.82741689  0.06445879  0.87686307    -0.04200
C1283       C  0.63391935  0.86201802  0.98142409    -0.11600
C1284       C  0.65596472  0.88487774  0.98536747     0.03800
C1285       C  0.66728864  0.90630383  0.97742628    -0.12200
C1286       C  0.65685033  0.90536627  0.96562439     0.18700
C1287       C  0.63502507  0.88260600  0.96169687    -0.09200
C1288       C  0.62387834  0.86125496  0.96952478    -0.02200
H1289       H  0.68387341  0.92394736  0.98057624     0.05200
C1290       C  0.66784717  0.92845765  0.95763895     0.20700
H1291       H  0.60698694  0.84401562  0.96631906     0.10400
C1292       C  0.68267331  0.92998644  0.94725674    -0.15500
C1293       C  0.69048121  0.94985632  0.93854004     0.03400
C1294       C  0.68337467  0.96879617  0.94018632    -0.10900
C1295       C  0.66912332  0.96744829  0.95086913    -0.00900
C1296       C  0.66134068  0.94754780  0.95950371    -0.06100
H1297       H  0.68748647  0.91512430  0.94572374     0.06400
H1298       H  0.66348848  0.98169199  0.95244654     0.09800
Br1299     Br  0.61891009  0.88021661  0.94594904    -0.05800
Br1300     Br  0.67003343  0.88882717  0.00178439    -0.02700
Br1301     Br  0.70957389  0.94880460  0.92443922     0.00100
Br1302     Br  0.64052858  0.94633567  0.97333097    -0.04200
C1303       C  0.97192997  0.30367860  0.05749240    -0.11600
C1304       C  0.95548018  0.27681222  0.05899472     0.03800
C1305       C  0.93338347  0.26360478  0.05158907    -0.12200
C1306       C  0.92728491  0.27648720  0.04257816     0.18700
C1307       C  0.94363311  0.30305585  0.04097552    -0.09200
C1308       C  0.96564614  0.31632947  0.04833510    -0.02200
H1309       H  0.92069347  0.24317347  0.05295868     0.05200
C1310       C  0.90292433  0.26246283  0.03551091     0.20700
H1311       H  0.97775025  0.33683417  0.04694679     0.10400
C1312       C  0.87995121  0.25716023  0.04134966    -0.15500
C1313       C  0.85693676  0.24668974  0.03464424     0.03400
C1314       C  0.85663234  0.24132046  0.02180866    -0.10900
C1315       C  0.87939397  0.24520234  0.01615925    -0.00900
C1316       C  0.90245154  0.25578182  0.02290457    -0.06100
H1317       H  0.88006815  0.26182855  0.05108578     0.06400
H1318       H  0.87951405  0.24105311  0.00636770     0.09800
Br1319     Br  0.93602976  0.32224396  0.02919453    -0.05800
Br1320     Br  0.96116028  0.25679078  0.07112239    -0.02700
Br1321     Br  0.82648194  0.23960406  0.04365133     0.00100
Br1322     Br  0.93301646  0.26150891  0.01449861    -0.04200
C1323       C  0.71176478  0.31506444  0.02248466    -0.11600
C1324       C  0.70227838  0.28919223  0.02604766     0.03800
C1325       C  0.71703006  0.27757998  0.02378737    -0.12200
C1326       C  0.74131300  0.29132636  0.01820638     0.18700
C1327       C  0.75114308  0.31717523  0.01499463    -0.09200
C1328       C  0.73642364  0.32878538  0.01709367    -0.02200
H1329       H  0.70961754  0.25775424  0.02647810     0.05200
C1330       C  0.75619379  0.27843918  0.01575604     0.20700
H1331       H  0.74432144  0.34864991  0.01436592     0.10400
C1332       C  0.75636806  0.26956777  0.00372746    -0.15500
C1333       C  0.77069364  0.25773943  0.00096857     0.03400
C1334       C  0.78484819  0.25413672  0.01049137    -0.10900
C1335       C  0.78483335  0.26350924  0.02250559    -0.00900
C1336       C  0.77080039  0.27566233  0.02514973    -0.06100
H1337       H  0.74561543  0.27227840  0.99639159     0.06400
H1338       H  0.79568779  0.26130797  0.02994143     0.09800
Br1339     Br  0.78482469  0.33742898  0.00793212    -0.05800
Br1340     Br  0.67032300  0.26893932  0.03471989    -0.02700
Br1341     Br  0.77144963  0.24903745  0.98382601     0.00100
Br1342     Br  0.77272252  0.28892816  0.04160074    -0.04200
C1343       C  0.79672886  0.18992971  0.98786458    -0.11600
C1344       C  0.79370540  0.16540305  0.98986872     0.03800
C1345       C  0.78312889  0.14670367  0.98047549    -0.12200
C1346       C  0.77534249  0.15200277  0.96908914     0.18700
C1347       C  0.77875603  0.17654225  0.96701345    -0.09200
C1348       C  0.78936168  0.19521464  0.97633555    -0.02200
H1349       H  0.78029727  0.12773699  0.98217849     0.05200
C1350       C  0.76254120  0.13147803  0.95966557     0.20700
H1351       H  0.79163722  0.21393388  0.97459943     0.10400
C1352       C  0.73567035  0.11838321  0.95874439    -0.15500
C1353       C  0.72282088  0.09935016  0.94970539     0.03400
C1354       C  0.73704286  0.09327003  0.94126249    -0.10900
C1355       C  0.76401243  0.10634826  0.94234832    -0.00900
C1356       C  0.77673912  0.12528026  0.95142328    -0.06100
H1357       H  0.72462634  0.12295677  0.96515152     0.06400
H1358       H  0.77535386  0.10196471  0.93604834     0.09800
Br1359     Br  0.76887049  0.18523883  0.95161593    -0.05800
Br1360     Br  0.80133570  0.15557542  0.00556605    -0.02700
Br1361     Br  0.68592269  0.08158140  0.94999429     0.00100
Br1362     Br  0.81354700  0.14255631  0.95209669    -0.04200
C1363       C  0.21715557  0.11254871  0.81934145    -0.11600
C1364       C  0.19988990  0.10945634  0.82902997     0.03800
C1365       C  0.17347903  0.09676901  0.82665214    -0.12200
C1366       C  0.16385727  0.08689095  0.81481049     0.18700
C1367       C  0.18090767  0.09009106  0.80513646    -0.09200
C1368       C  0.20728270  0.10284218  0.80744487    -0.02200
H1369       H  0.16026208  0.09396294  0.83417099     0.05200
C1370       C  0.13586892  0.07200577  0.81294741     0.20700
H1371       H  0.22012557  0.10498793  0.79987125     0.10400
C1372       C  0.12317516  0.08394867  0.80787282    -0.15500
C1373       C  0.09643037  0.07048865  0.80642925     0.03400
C1374       C  0.08187240  0.04445170  0.81028976    -0.10900
C1375       C  0.09508049  0.03256650  0.81508374    -0.00900
C1376       C  0.12174705  0.04606777  0.81639637    -0.06100
H1377       H  0.13418292  0.10389579  0.80503225     0.06400
H1378       H  0.08466822  0.01269086  0.81804233     0.09800
Br1379     Br  0.16891314  0.07646807  0.78879347    -0.05800
Br1380     Br  0.21057387  0.11991206  0.84590918    -0.02700
Br1381     Br  0.08186956  0.08899597  0.79868083     0.00100
Br1382     Br  0.13820035  0.02833739  0.82292243    -0.04200
C1383       C  0.33182981  0.26625639  0.88994789    -0.11600
C1384       C  0.30836222  0.24262277  0.88980174     0.03800
C1385       C  0.30251416  0.22578070  0.87972313    -0.12200
C1386       C  0.31945903  0.23211735  0.86962711     0.18700
C1387       C  0.34242426  0.25594216  0.86955285    -0.09200
C1388       C  0.34856260  0.27259943  0.87969957    -0.02200
H1389       H  0.28467331  0.20749481  0.87978727     0.05200
C1390       C  0.31278142  0.21356033  0.85929088     0.20700
H1391       H  0.36653278  0.29075086  0.87952705     0.10400
C1392       C  0.30325920  0.21756051  0.84813185    -0.15500
C1393       C  0.29486214  0.19932659  0.83856981     0.03400
C1394       C  0.29615806  0.17677168  0.84005153    -0.10900
C1395       C  0.30671282  0.17328188  0.85099139    -0.00900
C1396       C  0.31484030  0.19140535  0.86062539    -0.06100
H1397       H  0.30178672  0.23464695  0.84698447     0.06400
H1398       H  0.30756274  0.15588334  0.85227422     0.09800
Br1399     Br  0.36610426  0.26632285  0.85587173    -0.05800
Br1400     Br  0.28406880  0.23149311  0.90325053    -0.02700
Br1401     Br  0.28166629  0.20594100  0.82364130     0.00100
Br1402     Br  0.32801405  0.18490657  0.87557677    -0.04200
C1403       C  0.25389865  0.40765631  0.97497509    -0.11600
C1404       C  0.26030826  0.41223198  0.96219042     0.03800
C1405       C  0.26925771  0.39791644  0.95585953    -0.12200
C1406       C  0.27209597  0.37900616  0.96202197     0.18700
C1407       C  0.26463176  0.37360003  0.97459593    -0.09200
C1408       C  0.25538713  0.38768719  0.98093027    -0.02200
H1409       H  0.27483768  0.40213269  0.94617050     0.05200
C1410       C  0.28556156  0.36734197  0.95557896     0.20700
H1411       H  0.25052235  0.38381921  0.99070696     0.10400
C1412       C  0.31165724  0.37709935  0.95809116    -0.15500
C1413       C  0.32585957  0.36802405  0.95176585     0.03400
C1414       C  0.31389074  0.34858238  0.94257007    -0.10900
C1415       C  0.28746317  0.33853581  0.94026247    -0.00900
C1416       C  0.27337994  0.34778918  0.94664561    -0.06100
H1417       H  0.32113743  0.39216488  0.96494528     0.06400
H1418       H  0.27771304  0.32363062  0.93337198     0.09800
Br1419     Br  0.26768007  0.34778022  0.98356856    -0.05800
Br1420     Br  0.25697613  0.43749448  0.95278240    -0.02700
Br1421     Br  0.36141878  0.38349110  0.95640900     0.00100
Br1422     Br  0.23753729  0.33312848  0.94296780    -0.04200
C1423       C  0.34301542  0.05457258  0.06851943    -0.11600
C1424       C  0.34433666  0.05446219  0.05539939     0.03800
C1425       C  0.35522025  0.07763014  0.04880690    -0.12200
C1426       C  0.36488517  0.10112565  0.05506309     0.18700
C1427       C  0.36205904  0.10113306  0.06809641    -0.09200
C1428       C  0.35113688  0.07795201  0.07470810    -0.02200
H1429       H  0.35679559  0.07737715  0.03875015     0.05200
C1430       C  0.37923322  0.12529929  0.04786636     0.20700
H1431       H  0.34990980  0.07832413  0.08477804     0.10400
C1432       C  0.36614610  0.13260189  0.03955079    -0.15500
C1433       C  0.37943483  0.15452168  0.03202089     0.03400
C1434       C  0.40668794  0.16963307  0.03266094    -0.10900
C1435       C  0.41949384  0.16207660  0.04117511    -0.00900
C1436       C  0.40614127  0.14022779  0.04861577    -0.06100
H1437       H  0.34541046  0.12105181  0.03887260     0.06400
H1438       H  0.44023530  0.17283324  0.04192526     0.09800
Br1439     Br  0.37327430  0.13235278  0.07723845    -0.05800
Br1440     Br  0.33086879  0.02321734  0.04599318    -0.02700
Br1441     Br  0.35856478  0.16215533  0.02135146     0.00100
Br1442     Br  0.42575459  0.13071668  0.05915313    -0.04200
C1443       C  0.49191352  0.24303759  0.02194954    -0.11600
C1444       C  0.50664963  0.26944640  0.01897901     0.03800
C1445       C  0.53342948  0.28230521  0.02006524    -0.12200
C1446       C  0.54605859  0.26958709  0.02433575     0.18700
C1447       C  0.53129799  0.24381607  0.02822726    -0.09200
C1448       C  0.50452371  0.23072076  0.02688827    -0.02200
H1449       H  0.54453355  0.30241790  0.01750660     0.05200
C1450       C  0.57455494  0.28386396  0.02481040     0.20700
H1451       H  0.49357411  0.21066387  0.02954851     0.10400
C1452       C  0.58717742  0.30578114  0.03235008    -0.15500
C1453       C  0.61404627  0.32051113  0.03265988     0.03400
C1454       C  0.62889561  0.31317534  0.02538631    -0.10900
C1455       C  0.61616893  0.29121278  0.01783926    -0.00900
C1456       C  0.58931511  0.27689758  0.01731924    -0.06100
H1457       H  0.57599905  0.31148360  0.03803535     0.06400
H1458       H  0.62717707  0.28556124  0.01199868     0.09800
Br1459     Br  0.54666952  0.22596740  0.03582349    -0.05800
Br1460     Br  0.49150815  0.28960013  0.01416337    -0.02700
Br1461     Br  0.62897716  0.34965905  0.04362270     0.00100
Br1462     Br  0.57386071  0.24923269  0.00553031    -0.04200
C1463       C  0.38191468  0.28415659  0.94833709    -0.11600
C1464       C  0.37286247  0.25744246  0.94799933     0.03800
C1465       C  0.37946411  0.24588325  0.95751888    -0.12200
C1466       C  0.39494925  0.26036202  0.96750741     0.18700
C1467       C  0.40450395  0.28703002  0.96772974    -0.09200
C1468       C  0.39803539  0.29868649  0.95820665    -0.02200
H1469       H  0.37246847  0.22543113  0.95712824     0.05200
C1470       C  0.40157162  0.24751984  0.97743239     0.20700
H1471       H  0.40530971  0.31917818  0.95864626     0.10400
C1472       C  0.42102497  0.24167782  0.97525252    -0.15500
C1473       C  0.42902224  0.23122271  0.98469006     0.03400
C1474       C  0.41737884  0.22627016  0.99656627    -0.10900
C1475       C  0.39699463  0.23086679  0.99853905    -0.00900
C1476       C  0.38914205  0.24151803  0.98910653    -0.06100
H1477       H  0.43038501  0.24575416  0.96623289     0.06400
H1478       H  0.38784553  0.22715277  0.00760406     0.09800
Br1479     Br  0.42668447  0.30826373  0.98082489    -0.05800
Br1480     Br  0.35263141  0.23583045  0.93449199    -0.02700
Br1481     Br  0.45552432  0.22348079  0.98079759     0.00100
Br1482     Br  0.36177408  0.24811619  0.99262305    -0.04200
C1483       C  0.59107944  0.44097507  0.65143895    -0.11600
C1484       C  0.59976799  0.43591132  0.64018827     0.03800
C1485       C  0.61100498  0.42049385  0.64025967    -0.12200
C1486       C  0.61320501  0.40954603  0.65138015     0.18700
C1487       C  0.60402530  0.41415392  0.66256082    -0.09200
C1488       C  0.59337036  0.43004873  0.66255148    -0.02200
H1489       H  0.61818263  0.41714061  0.63164943     0.05200
C1490       C  0.62603176  0.39420125  0.65118891     0.20700
H1491       H  0.58618057  0.43328811  0.67118738     0.10400
C1492       C  0.64987779  0.40382694  0.65709706    -0.15500
C1493       C  0.66310546  0.39031294  0.65675601     0.03400
C1494       C  0.65270775  0.36697823  0.65008470    -0.10900
C1495       C  0.62845153  0.35711972  0.64446692    -0.00900
C1496       C  0.61505396  0.37041651  0.64504174    -0.06100
H1497       H  0.65817023  0.42192429  0.66205816     0.06400
H1498       H  0.61992487  0.33911258  0.63945125     0.09800
Br1499     Br  0.60437857  0.39806144  0.67791250    -0.05800
Br1500     Br  0.59785260  0.45044132  0.62460914    -0.02700
Br1501     Br  0.69416894  0.40393096  0.66633663     0.00100
Br1502     Br  0.58150815  0.35499044  0.63766270    -0.04200
C1503       C  0.63395184  0.59612590  0.72188481    -0.11600
C1504       C  0.60686659  0.58052559  0.72111623     0.03800
C1505       C  0.59562290  0.56366316  0.71105720    -0.12200
C1506       C  0.61082244  0.56193278  0.70165872     0.18700
C1507       C  0.63774093  0.57751462  0.70234039    -0.09200
C1508       C  0.64907252  0.59427664  0.71241277    -0.02200
H1509       H  0.57490142  0.55133369  0.71072198     0.05200
C1510       C  0.59855321  0.54206343  0.69187477     0.20700
H1511       H  0.66983600  0.60619130  0.71274428     0.10400
C1512       C  0.58865302  0.54697045  0.68105277    -0.15500
C1513       C  0.57854285  0.52884103  0.67135550     0.03400
C1514       C  0.57815353  0.50528690  0.67250280    -0.10900
C1515       C  0.58734661  0.50029878  0.68357619    -0.00900
C1516       C  0.59745331  0.51835068  0.69315700    -0.06100
H1517       H  0.58950996  0.56527272  0.67999572     0.06400
H1518       H  0.58712721  0.48231724  0.68472590     0.09800
Br1519     Br  0.65968566  0.57636349  0.68970085    -0.05800
Br1520     Br  0.58415241  0.57987116  0.73386986    -0.02700
Br1521     Br  0.56778094  0.53828309  0.65645262     0.00100
Br1522     Br  0.61025768  0.51009373  0.70773812    -0.04200
C1523       C  0.74091360  0.67448623  0.77377011    -0.11600
C1524       C  0.74468806  0.68727346  0.78532742     0.03800
C1525       C  0.76828641  0.69741321  0.79149598    -0.12200
C1526       C  0.78842701  0.69488602  0.78654396     0.18700
C1527       C  0.78421762  0.68061765  0.77553230    -0.09200
C1528       C  0.76063367  0.67056473  0.76923694    -0.02200
H1529       H  0.77118323  0.70790619  0.80010251     0.05200
C1530       C  0.81407906  0.70913946  0.79255854     0.20700
H1531       H  0.75812357  0.66053099  0.76052203     0.10400
C1532       C  0.82286171  0.69638425  0.80024401    -0.15500
C1533       C  0.84595686  0.71002452  0.80696319     0.03400
C1534       C  0.86072435  0.73730152  0.80616611    -0.10900
C1535       C  0.85212741  0.74955853  0.79791300    -0.00900
C1536       C  0.82920252  0.73590108  0.79125595    -0.06100
H1537       H  0.81143662  0.67568508  0.80117786     0.06400
H1538       H  0.86301506  0.77016172  0.79669955     0.09800
Br1539     Br  0.81062088  0.67563701  0.76844660    -0.05800
Br1540     Br  0.71848900  0.69128515  0.79348206    -0.02700
Br1541     Br  0.85570969  0.68957585  0.81671281     0.00100
Br1542     Br  0.81909810  0.75474108  0.78052867    -0.04200
C1543       C  0.46232819  0.50354439  0.86050268    -0.11600
C1544       C  0.45473129  0.50218723  0.87306230     0.03800
C1545       C  0.44549540  0.47924015  0.87972990    -0.12200
C1546       C  0.44353425  0.45728970  0.87413326     0.18700
C1547       C  0.45172783  0.45877953  0.86170073    -0.09200
C1548       C  0.46126599  0.48183923  0.85504373    -0.02200
H1549       H  0.43928177  0.47834752  0.88927409     0.05200
C1550       C  0.43105709  0.43273998  0.88119273     0.20700
H1551       H  0.46699833  0.48252230  0.84542658     0.10400
C1552       C  0.40650132  0.41331075  0.87761103    -0.15500
C1553       C  0.39267688  0.39104526  0.88478701     0.03400
C1554       C  0.40333509  0.38792548  0.89596584    -0.10900
C1555       C  0.42847280  0.40697364  0.89921293    -0.00900
C1556       C  0.44223256  0.42923444  0.89197393    -0.06100
H1557       H  0.39779707  0.41574468  0.86930810     0.06400
H1558       H  0.43722718  0.40493303  0.90758821     0.09800
Br1559     Br  0.45004334  0.42979288  0.85340366    -0.05800
Br1560     Br  0.45719638  0.53118927  0.88175755    -0.02700
Br1561     Br  0.35963874  0.36570051  0.87845630     0.00100
Br1562     Br  0.47624437  0.45439935  0.89715543    -0.04200
C1563       C  0.44465075  0.57077188  0.84582151    -0.11600
C1564       C  0.41862746  0.55802436  0.84975040     0.03800
C1565       C  0.40508083  0.57129950  0.85001529    -0.12200
C1566       C  0.41654399  0.59689209  0.84602549     0.18700
C1567       C  0.44201990  0.60925487  0.84162303    -0.09200
C1568       C  0.45583075  0.59634038  0.84166595    -0.02200
H1569       H  0.38541044  0.56155127  0.85331677     0.05200
C1570       C  0.40209122  0.61075447  0.84691880     0.20700
H1571       H  0.47550946  0.60650774  0.83840844     0.10400
C1572       C  0.41179162  0.63268159  0.85448627    -0.15500
C1573       C  0.39934007  0.64692233  0.85532408     0.03400
C1574       C  0.37629003  0.63889334  0.84870672    -0.10900
C1575       C  0.36621101  0.61650824  0.84141576    -0.00900
C1576       C  0.37896917  0.60259346  0.84039003    -0.06100
H1577       H  0.42927978  0.63882338  0.85973867     0.06400
H1578       H  0.34861118  0.61011869  0.83622222     0.09800
Br1579     Br  0.45859563  0.64348942  0.83497544    -0.05800
Br1580     Br  0.39955948  0.52225003  0.85409844    -0.02700
Br1581     Br  0.41424615  0.67630397  0.86612277     0.00100
Br1582     Br  0.36465780  0.57346855  0.82943452    -0.04200
C1583       C  0.61376159  0.61968512  0.78094578    -0.11600
C1584       C  0.61493580  0.60358588  0.79022003     0.03800
C1585       C  0.59604509  0.59303961  0.79951160    -0.12200
C1586       C  0.57562791  0.59792447  0.79981242     0.18700
C1587       C  0.57443088  0.61400797  0.79063184    -0.09200
C1588       C  0.59340736  0.62478092  0.78138041    -0.02200
H1589       H  0.59743392  0.58110103  0.80665954     0.05200
C1590       C  0.55631931  0.58686252  0.81000615     0.20700
H1591       H  0.59197978  0.63692133  0.77436451     0.10400
C1592       C  0.55432940  0.60345914  0.81850565    -0.15500
C1593       C  0.53563112  0.59395522  0.82788115     0.03400
C1594       C  0.51854569  0.56725518  0.82898486    -0.10900
C1595       C  0.52138120  0.55054929  0.82089576    -0.00900
C1596       C  0.53996777  0.56011751  0.81142387    -0.06100
H1597       H  0.56726624  0.62400598  0.81774893     0.06400
H1598       H  0.50835399  0.53001061  0.82159512     0.09800
Br1599     Br  0.54671855  0.62107059  0.79003987    -0.05800
Br1600     Br  0.64232697  0.59607541  0.79128091    -0.02700
Br1601     Br  0.53492527  0.61834413  0.83915355     0.00100
Br1602     Br  0.54109243  0.53594694  0.80018960    -0.04200
C1603       C  0.65064084  0.28491083  0.64547181    -0.11600
C1604       C  0.62572878  0.27105541  0.64025267     0.03800
C1605       C  0.61214973  0.24426394  0.64073977    -0.12200
C1606       C  0.62298596  0.23094861  0.64628237     0.18700
C1607       C  0.64804639  0.24452648  0.65110502    -0.09200
C1608       C  0.66168734  0.27131308  0.65066983    -0.02200
H1609       H  0.59300680  0.23374950  0.63684247     0.05200
C1610       C  0.60764708  0.20285744  0.64714911     0.20700
H1611       H  0.68077593  0.28152114  0.65464645     0.10400
C1612       C  0.60527745  0.18795592  0.63668887    -0.15500
C1613       C  0.59139965  0.16115428  0.63735386     0.03400
C1614       C  0.57999515  0.14900120  0.64874776    -0.10900
C1615       C  0.58159926  0.16416124  0.65904419    -0.00900
C1616       C  0.59515920  0.19087131  0.65828862    -0.06100
H1617       H  0.61426367  0.19724579  0.62798172     0.06400
H1618       H  0.57268065  0.15525695  0.66782185     0.09800
Br1619     Br  0.66425634  0.22721691  0.65839410    -0.05800
Br1620     Br  0.60950199  0.28707192  0.63170431    -0.02700
Br1621     Br  0.58740713  0.14252094  0.62221737     0.00100
Br1622     Br  0.59597469  0.21026769  0.67263928    -0.04200
C1623       C  0.42469640  0.02923775  0.72016506    -0.11600
C1624       C  0.41992250  0.01419883  0.70930875     0.03800
C1625       C  0.43871815  0.02207805  0.70002123    -0.12200
C1626       C  0.46227732  0.04492979  0.70123893     0.18700
C1627       C  0.46701146  0.06015714  0.71195005    -0.09200
C1628       C  0.44829649  0.05227160  0.72130284    -0.02200
H1629       H  0.43467793  0.01067805  0.69163726     0.05200
C1630       C  0.48064569  0.05372675  0.69072853     0.20700
H1631       H  0.45229334  0.06408358  0.72953310     0.10400
C1632       C  0.48222076  0.07312935  0.68301569    -0.15500
C1633       C  0.49933753  0.08236020  0.67300421     0.03400
C1634       C  0.51566280  0.07221260  0.67058152    -0.10900
C1635       C  0.51335426  0.05205530  0.67810371    -0.00900
C1636       C  0.49601412  0.04280450  0.68811539    -0.06100
H1637       H  0.46994708  0.08115499  0.68481292     0.06400
H1638       H  0.52566200  0.04402262  0.67646751     0.09800
Br1639     Br  0.49884239  0.09175237  0.71418007    -0.05800
Br1640     Br  0.38740042  0.98393280  0.70603953    -0.02700
Br1641     Br  0.49832026  0.10811179  0.66285119     0.00100
Br1642     Br  0.49465055  0.01604353  0.69830614    -0.04200
C1643       C  0.29839314  0.11744141  0.80871108    -0.11600
C1644       C  0.29225830  0.11105985  0.79601738     0.03800
C1645       C  0.30326800  0.09903860  0.78943865    -0.12200
C1646       C  0.32054055  0.09322985  0.79519751     0.18700
C1647       C  0.32769436  0.10061707  0.80767698    -0.09200
C1648       C  0.31662188  0.11266313  0.81434009    -0.02200
H1649       H  0.29808021  0.09389141  0.77976521     0.05200
C1650       C  0.33045734  0.07924613  0.78789283     0.20700
H1651       H  0.32167783  0.11758599  0.82403878     0.10400
C1652       C  0.34656507  0.09141317  0.77767336    -0.15500
C1653       C  0.35441957  0.07812459  0.76978198     0.03400
C1654       C  0.34617827  0.05197429  0.77214688    -0.10900
C1655       C  0.33003083  0.03997250  0.78245708    -0.00900
C1656       C  0.32194365  0.05321163  0.79017993    -0.06100
H1657       H  0.35263334  0.11130536  0.77567598     0.06400
H1658       H  0.32316739  0.01992114  0.78444984     0.09800
Br1659     Br  0.35247006  0.09467579  0.81591624    -0.05800
Br1660     Br  0.26982365  0.11913138  0.78688416    -0.02700
Br1661     Br  0.37519800  0.09681291  0.75573256     0.00100
Br1662     Br  0.29779805  0.03435550  0.80317649    -0.04200
C1663       C  0.51395158  0.94236457  0.85699185    -0.11600
C1664       C  0.51737200  0.96197660  0.86532617     0.03800
C1665       C  0.53984924  0.97473528  0.87250014    -0.12200
C1666       C  0.55958188  0.96891222  0.87124914     0.18700
C1667       C  0.55667321  0.95026161  0.86242238    -0.09200
C1668       C  0.53386779  0.93689188  0.85558253    -0.02200
H1669       H  0.54167278  0.98885512  0.87929624     0.05200
C1670       C  0.58212202  0.98079284  0.87979381     0.20700
H1671       H  0.53176687  0.92227529  0.84902872     0.10400
C1672       C  0.58629138  0.96473255  0.88770742    -0.15500
C1673       C  0.60814736  0.97447483  0.89524830     0.03400
C1674       C  0.62656091  0.00096511  0.89500618    -0.10900
C1675       C  0.62156294  0.01732046  0.88770647    -0.00900
C1676       C  0.59958666  0.00749058  0.88015056    -0.06100
H1677       H  0.57251412  0.94430074  0.88789754     0.06400
H1678       H  0.63530055  0.03775663  0.88750246     0.09800
Br1679     Br  0.58365267  0.94291396  0.85907720    -0.05800
Br1680     Br  0.49131212  0.97092493  0.86791635    -0.02700
Br1681     Br  0.61107468  0.95063546  0.90601570     0.00100
Br1682     Br  0.59514733  0.03117237  0.87002325    -0.04200
C1683       C  0.44125392  0.85760705  0.84453066    -0.11600
C1684       C  0.42192678  0.84174817  0.83580774     0.03800
C1685       C  0.40878525  0.81501372  0.83716837    -0.12200
C1686       C  0.41454482  0.80338386  0.84691472     0.18700
C1687       C  0.43391145  0.81881984  0.85544156    -0.09200
C1688       C  0.44699563  0.84560419  0.85424642    -0.02200
H1689       H  0.39422326  0.80312553  0.83043738     0.05200
C1690       C  0.40104148  0.77503218  0.84762027     0.20700
H1691       H  0.46155535  0.85703773  0.86105569     0.10400
C1692       C  0.41313808  0.76220256  0.84285207    -0.15500
C1693       C  0.40093492  0.73537633  0.84305282     0.03400
C1694       C  0.37592101  0.72072295  0.84821175    -0.10900
C1695       C  0.36384397  0.73383438  0.85291243    -0.00900
C1696       C  0.37616976  0.76069498  0.85264162    -0.06100
H1697       H  0.43215357  0.77319365  0.83879652     0.06400
H1698       H  0.34476582  0.72318954  0.85692446     0.09800
Br1699     Br  0.44281076  0.80399736  0.86895170    -0.05800
Br1700     Br  0.41296387  0.85431603  0.82131427     0.21900
Br1701     Br  0.41931401  0.72058093  0.83535243     0.00100
Br1702     Br  0.35856106  0.77710069  0.85938158    -0.04200
C1703       C  0.44655205  0.93639698  0.82860393    -0.11600
C1704       C  0.41975743  0.92594864  0.82720824     0.03800
C1705       C  0.41035480  0.93503529  0.81781296    -0.12200
C1706       C  0.42717599  0.95462423  0.80977283     0.18700
C1707       C  0.45388291  0.96614966  0.81160929    -0.09200
C1708       C  0.46337340  0.95702274  0.82098071    -0.02200
H1709       H  0.38976752  0.92659239  0.81667608     0.05200
C1710       C  0.41644339  0.96259259  0.79948179     0.20700
H1711       H  0.48397542  0.96528770  0.82191293     0.10400
C1712       C  0.41741301  0.98625269  0.80020865    -0.15500
C1713       C  0.40736312  0.99436782  0.79066339     0.03400
C1714       C  0.39625657  0.97870122  0.78004902    -0.10900
C1715       C  0.39479124  0.95471304  0.77950076    -0.00900
C1716       C  0.40477122  0.94661512  0.78910024    -0.06100
H1717       H  0.42581056  0.99833332  0.80830498     0.06400
H1718       H  0.38626031  0.94239923  0.77148964     0.09800
Br1719     Br  0.47805595  0.99329078  0.80105522    -0.05800
Br1720     Br  0.39500635  0.89989261  0.83807759    -0.02700
Br1721     Br  0.40792132  0.02620375  0.79318440     0.00100
Br1722     Br  0.40268887  0.91391043  0.78748023    -0.04200
C1723       C  0.07832655  0.57153499  0.84975041    -0.11600
C1724       C  0.05131453  0.55981810  0.85122583     0.03800
C1725       C  0.04090266  0.57146318  0.85879137    -0.12200
C1726       C  0.05675927  0.59469361  0.86503747     0.18700
C1727       C  0.08355972  0.60634716  0.86360386    -0.09200
C1728       C  0.09394143  0.59507351  0.85594941    -0.02200
H1729       H  0.02027387  0.56216956  0.85992813     0.05200
C1730       C  0.04521361  0.60601976  0.87337630     0.20700
H1731       H  0.11464152  0.60477100  0.85510713     0.10400
C1732       C  0.03243552  0.59302327  0.88430239    -0.15500
C1733       C  0.02274164  0.60386581  0.89278371     0.03400
C1734       C  0.02598563  0.62845090  0.89045547    -0.10900
C1735       C  0.03818837  0.64100849  0.87931631    -0.00900
C1736       C  0.04740422  0.62995566  0.87078140    -0.06100
H1737       H  0.03045462  0.57450290  0.88637886     0.06400
H1738       H  0.04044065  0.65959394  0.87713682     0.09800
Br1739     Br  0.10716515  0.63684459  0.87255707    -0.05800
Br1740     Br  0.02732760  0.52745629  0.84387322    -0.02700
Br1741     Br  0.00654599  0.58457162  0.90757404     0.00100
Br1742     Br  0.06212835  0.64802954  0.85551557    -0.04200
C1743       C  0.15818615  0.57053986  0.84176853    -0.11600
C1744       C  0.17021917  0.58400568  0.85286006     0.03800
C1745       C  0.19696305  0.59636565  0.85399097    -0.12200
C1746       C  0.21207988  0.59521950  0.84439996     0.18700
C1747       C  0.20022492  0.58062298  0.83370736    -0.09200
C1748       C  0.17353199  0.56853541  0.83242457    -0.02200
H1749       H  0.20606691  0.60706498  0.86237211     0.05200
C1750       C  0.24026010  0.60990042  0.84563953     0.20700
H1751       H  0.16489020  0.55807272  0.82392645     0.10400
C1752       C  0.25280124  0.59862170  0.85154268    -0.15500
C1753       C  0.27951406  0.61216675  0.85300522     0.03400
C1754       C  0.29420828  0.63761431  0.84838513    -0.10900
C1755       C  0.28129400  0.64891194  0.84267823    -0.00900
C1756       C  0.25458507  0.63527603  0.84129406    -0.06100
H1757       H  0.24169409  0.57922162  0.85510186     0.06400
H1758       H  0.29199691  0.66828786  0.83906776     0.09800
Br1759     Br  0.21985805  0.57707213  0.82058133    -0.05800
Br1760     Br  0.15174722  0.58551968  0.86713762    -0.02700
Br1761     Br  0.29398187  0.59489100  0.86201398     0.00100
Br1762     Br  0.23835569  0.65194365  0.83337287    -0.04200
C1763       C  0.03846182  0.41431636  0.77069847    -0.11600
C1764       C  0.06304638  0.43673969  0.77022547     0.03800
C1765       C  0.07059844  0.45542640  0.77961241    -0.12200
C1766       C  0.05428181  0.45217859  0.78966700     0.18700
C1767       C  0.02995523  0.42981416  0.79021113    -0.09200
C1768       C  0.02215822  0.41135034  0.78075243    -0.02200
H1769       H  0.08942321  0.47254790  0.77912310     0.05200
C1770       C  0.06329683  0.47178759  0.79974087     0.20700
H1771       H  0.00339736  0.39420528  0.78145125     0.10400
C1772       C  0.05323472  0.48829599  0.80077318    -0.15500
C1773       C  0.06188122  0.50733085  0.81007021     0.03400
C1774       C  0.08085739  0.50994609  0.81865931    -0.10900
C1775       C  0.09046762  0.49297908  0.81764071    -0.00900
C1776       C  0.08196905  0.47420923  0.80833387    -0.06100
H1777       H  0.03895376  0.48668514  0.79415341     0.06400
H1778       H  0.10493544  0.49440608  0.82409058     0.09800
Br1779     Br  0.00733398  0.42299653  0.80409084    -0.05800
Br1780     Br  0.08695024  0.44355930  0.75690553    -0.02700
Br1781     Br  0.04853436  0.53026899  0.80979532     0.00100
Br1782     Br  0.09627786  0.45207228  0.80780520    -0.04200
C1783       C  0.96192291  0.28133340  0.76525147    -0.11600
C1784       C  0.96103844  0.28198563  0.77838725     0.03800
C1785       C  0.94820112  0.25904857  0.78517276    -0.12200
C1786       C  0.93618861  0.23521492  0.77911543     0.18700
C1787       C  0.93631907  0.23449313  0.76600862    -0.09200
C1788       C  0.94888280  0.25744161  0.75918363    -0.02200
H1789       H  0.94809686  0.25977996  0.79526602     0.05200
C1790       C  0.92558679  0.21141741  0.78664963     0.20700
H1791       H  0.94937280  0.25655081  0.74910352     0.10400
C1792       C  0.90005839  0.19921288  0.79086952    -0.15500
C1793       C  0.88981350  0.17671183  0.79809546     0.03400
C1794       C  0.90547733  0.16627496  0.80139350    -0.10900
C1795       C  0.93109775  0.17883554  0.79707761    -0.00900
C1796       C  0.94106126  0.20096586  0.78976893    -0.06100
H1797       H  0.88795341  0.20705885  0.78838720     0.06400
H1798       H  0.94369699  0.17148637  0.79939721     0.09800
Br1799     Br  0.92066512  0.20251718  0.75714769    -0.05800
Br1800     Br  0.97637313  0.31363989  0.78754364    -0.02700
Br1801     Br  0.85403435  0.16061790  0.80233107     0.00100
Br1802     Br  0.97600019  0.21622819  0.78414435    -0.04200
C1803       C  0.87037425  0.42823671  0.64505422    -0.11600
C1804       C  0.85598250  0.41978236  0.65619407     0.03800
C1805       C  0.82920438  0.40761430  0.65577778    -0.12200
C1806       C  0.81623925  0.40338042  0.64441739     0.18700
C1807       C  0.83059550  0.41238087  0.63331519    -0.09200
C1808       C  0.85745863  0.42481418  0.63371946    -0.02200
H1809       H  0.81838054  0.40143555  0.66438860     0.05200
C1810       C  0.78780029  0.38991785  0.64447144     0.20700
H1811       H  0.86826445  0.43130216  0.62511516     0.10400
C1812       C  0.77528987  0.40286805  0.64036453    -0.15500
C1813       C  0.74845924  0.39093907  0.64051818     0.03400
C1814       C  0.73358228  0.36563932  0.64518537    -0.10900
C1815       C  0.74626055  0.35275240  0.64927575    -0.00900
C1816       C  0.77303482  0.36458459  0.64892231    -0.06100
H1817       H  0.78649746  0.42236112  0.63693777     0.06400
H1818       H  0.73532156  0.33334450  0.65284234     0.09800
Br1819     Br  0.81449296  0.40723624  0.61733246    -0.05800
Br1820     Br  0.87163409  0.42559958  0.67235599    -0.02700
Br1821     Br  0.73374189  0.40986146  0.63340668     0.00100
Br1822     Br  0.78838474  0.34495024  0.65426800    -0.04200
C1823       C  0.94759285  0.43286753  0.66197414    -0.11600
C1824       C  0.96375005  0.44798657  0.67174903     0.03800
C1825       C  0.97092440  0.43656482  0.68107114    -0.12200
C1826       C  0.96183301  0.41007200  0.68098089     0.18700
C1827       C  0.94582809  0.39497613  0.67119913    -0.09200
C1828       C  0.93890317  0.40641370  0.66179756    -0.02200
H1829       H  0.98293643  0.44825361  0.68869072     0.05200
C1830       C  0.96857771  0.39850698  0.69141619     0.20700
H1831       H  0.92603116  0.39443917  0.65447656     0.10400
C1832       C  0.95073062  0.38577565  0.70098412    -0.15500
C1833       C  0.95702007  0.37580448  0.71133283     0.03400
C1834       C  0.98188235  0.37883546  0.71229516    -0.10900
C1835       C  0.99942034  0.39118969  0.70247779    -0.00900
C1836       C  0.99292807  0.40082174  0.69212914    -0.06100
H1837       H  0.93184168  0.38382681  0.70044680     0.06400
H1838       H  0.01841108  0.39337268  0.70278913     0.09800
Br1839     Br  0.93250950  0.35862910  0.67051328    -0.05800
Br1840     Br  0.97391250  0.48349665  0.67366809    -0.02700
Br1841     Br  0.93081192  0.35894851  0.72376676     0.00100
Br1842     Br  0.01773443  0.41661150  0.67903201    -0.04200
C1843       C  0.18654647  0.89704045  0.68852959    -0.11600
C1844       C  0.21018243  0.89991117  0.68439987     0.03800
C1845       C  0.23118581  0.90949431  0.69259209    -0.12200
C1846       C  0.22907588  0.91615719  0.70488409     0.18700
C1847       C  0.20529398  0.91215895  0.70915840    -0.09200
C1848       C  0.18436400  0.90259644  0.70105629    -0.02200
H1849       H  0.24960607  0.91283975  0.68920014     0.05200
C1850       C  0.25243997  0.93047475  0.71259416     0.20700
H1851       H  0.16642100  0.90037975  0.70450433     0.10400
C1852       C  0.26709475  0.95712382  0.71115681    -0.15500
C1853       C  0.28867415  0.97198632  0.71857740     0.03400
C1854       C  0.29638241  0.96002291  0.72760998    -0.10900
C1855       C  0.28141389  0.93314604  0.72903031    -0.00900
C1856       C  0.25950839  0.91845296  0.72169616    -0.06100
H1857       H  0.26142245  0.96648966  0.70430475     0.06400
H1858       H  0.28662480  0.92346924  0.73591284     0.09800
Br1859     Br  0.20105845  0.92134019  0.72574211    -0.05800
Br1860     Br  0.21599053  0.89371750  0.66750084    -0.02700
Br1861     Br  0.30603190  0.00839972  0.71567842     0.00100
Br1862     Br  0.23953548  0.88214104  0.72449340    -0.04200
C1863       C  0.11593650  0.91124078  0.67736702    -0.11600
C1864       C  0.10732618  0.91246948  0.68944532     0.03800
C1865       C  0.09409085  0.92570859  0.69141865    -0.12200
C1866       C  0.08930344  0.93779877  0.68150453     0.18700
C1867       C  0.09775968  0.93652411  0.66945744    -0.09200
C1868       C  0.11076715  0.92311438  0.66745574    -0.02200
H1869       H  0.08755857  0.92661750  0.70067306     0.05200
C1870       C  0.07633627  0.95254504  0.68393918     0.20700
H1871       H  0.11752230  0.92254715  0.65811106     0.10400
C1872       C  0.09098415  0.97792778  0.68803711    -0.15500
C1873       C  0.07982991  0.99319501  0.68972399     0.03400
C1874       C  0.05327796  0.98291081  0.68726602    -0.10900
C1875       C  0.03855989  0.95704563  0.68354183    -0.00900
C1876       C  0.04989202  0.94193919  0.68184335    -0.06100
H1877       H  0.11135612  0.98601084  0.68978102     0.06400
H1878       H  0.01823723  0.94862414  0.68161053     0.09800
Br1879     Br  0.09267612  0.95359780  0.65562086    -0.05800
Br1880     Br  0.11192069  0.89544263  0.70346090    -0.02700
Br1881     Br  0.10222164  0.02745970  0.69573546     0.00100
Br1882     Br  0.02874045  0.90708730  0.67641932    -0.04200
C1883       C  0.07437742  0.75260085  0.60646504    -0.11600
C1884       C  0.10140939  0.76894964  0.60688125     0.03800
C1885       C  0.11250497  0.78811816  0.61598211    -0.12200
C1886       C  0.09723257  0.79169231  0.62466673     0.18700
C1887       C  0.07031388  0.77596764  0.62408796    -0.09200
C1888       C  0.05912396  0.75661554  0.61506842    -0.02200
H1889       H  0.13320541  0.80059216  0.61618770     0.05200
C1890       C  0.10963096  0.81256463  0.63395982     0.20700
H1891       H  0.03838887  0.74444238  0.61489526     0.10400
C1892       C  0.10806192  0.83477649  0.63240872    -0.15500
C1893       C  0.11851154  0.85450804  0.64123491     0.03400
C1894       C  0.13060524  0.85204915  0.65203853    -0.10900
C1895       C  0.13323843  0.83024812  0.65323072    -0.00900
C1896       C  0.12291710  0.81063174  0.64429286    -0.06100
H1897       H  0.09851555  0.83670331  0.62427828     0.06400
H1898       H  0.14251611  0.82796105  0.66136573     0.09800
Br1899     Br  0.04815781  0.77994855  0.63559673    -0.05800
Br1900     Br  0.12434659  0.76750155  0.59488192    -0.02700
Br1901     Br  0.11644613  0.88460172  0.63753480     0.00100
Br1902     Br  0.12633156  0.78100382  0.64685039    -0.04200
C1903       C  0.95468178  0.49839985  0.63120040    -0.11600
C1904       C  0.98190029  0.51413874  0.63172403     0.03800
C1905       C  0.99427280  0.53772637  0.62537808    -0.12200
C1906       C  0.98033188  0.54602871  0.61828726     0.18700
C1907       C  0.95363626  0.52997213  0.61713735    -0.09200
C1908       C  0.94111815  0.50663579  0.62355667    -0.02200
H1909       H  0.01496102  0.54984223  0.62607272     0.05200
C1910       C  0.99377034  0.57162895  0.61227000     0.20700
H1911       H  0.92044660  0.49503943  0.62258479     0.10400
C1912       C  0.00657547  0.57482361  0.60093492    -0.15500
C1913       C  0.01803553  0.59839294  0.59460039     0.03400
C1914       C  0.01674489  0.61946904  0.59966278    -0.10900
C1915       C  0.00457069  0.61622291  0.61128143    -0.00900
C1916       C  0.99320161  0.59268257  0.61754765    -0.06100
H1917       H  0.00717646  0.55867369  0.59685641     0.06400
H1918       H  0.00339777  0.63196443  0.61547371     0.09800
Br1919     Br  0.93347329  0.53915879  0.60683318    -0.05800
Br1920     Br  0.00398942  0.50531977  0.64064823    -0.02700
Br1921     Br  0.03420718  0.59969532  0.57897911     0.00100
Br1922     Br  0.97675978  0.59002070  0.63324368    -0.04200
C1923       C  0.32456406  0.71349756  0.47342017    -0.11600
C1924       C  0.30223185  0.70571024  0.46621738     0.03800
C1925       C  0.28830677  0.71842280  0.46751997    -0.12200
C1926       C  0.29624244  0.73888898  0.47589533     0.18700
C1927       C  0.31851712  0.74672617  0.48305917    -0.09200
C1928       C  0.33249512  0.73410440  0.48174886    -0.02200
H1929       H  0.27122444  0.71239374  0.46193343     0.05200
C1930       C  0.28100463  0.75179305  0.47699352     0.20700
H1931       H  0.34935665  0.74009500  0.48748623     0.10400
C1932       C  0.26620490  0.74797580  0.48770046    -0.15500
C1933       C  0.25124766  0.75961719  0.48898808     0.03400
C1934       C  0.25077735  0.77534343  0.47928908    -0.10900
C1935       C  0.26587495  0.77916507  0.46860884    -0.00900
C1936       C  0.28085123  0.76757440  0.46741657    -0.06100
H1937       H  0.26644051  0.73596111  0.49514111     0.06400
H1938       H  0.26603911  0.79120388  0.46108797     0.09800
Br1939     Br  0.33077647  0.77475182  0.49461074    -0.05800
Br1940     Br  0.29052175  0.67887901  0.45400259    -0.02700
Br1941     Br  0.23346424  0.75416705  0.50457170     0.00100
Br1942     Br  0.30139658  0.77441737  0.45269408    -0.04200
C1943       C  0.09290778  0.72481847  0.54809989    -0.11600
C1944       C  0.11445584  0.72175672  0.54599868     0.03800
C1945       C  0.13083343  0.73411821  0.53588017    -0.12200
C1946       C  0.12639287  0.74966056  0.52773875     0.18700
C1947       C  0.10499312  0.75265763  0.52973938    -0.09200
C1948       C  0.08865460  0.74047776  0.53984544    -0.02200
H1949       H  0.14721738  0.73157798  0.53432813     0.05200
C1950       C  0.14370515  0.76151179  0.51691770     0.20700
H1951       H  0.07226880  0.74310158  0.54112899     0.10400
C1952       C  0.14306988  0.74558349  0.50724747    -0.15500
C1953       C  0.16054217  0.75552188  0.49736702     0.03400
C1954       C  0.17921363  0.78188768  0.49706670    -0.10900
C1955       C  0.17902575  0.79807423  0.50641751    -0.00900
C1956       C  0.16158849  0.78806564  0.51635926    -0.06100
H1957       H  0.12916370  0.72519929  0.50750812     0.06400
H1958       H  0.19345385  0.81831049  0.50638905     0.09800
Br1959     Br  0.09663880  0.77227015  0.51861064    -0.05800
Br1960     Br  0.12313387  0.70138198  0.55644520    -0.02700
Br1961     Br  0.15790333  0.73227193  0.48445075     0.00100
Br1962     Br  0.16427924  0.81101417  0.52942286    -0.04200
C1963       C  0.12369756  0.28002663  0.68643487    -0.11600
C1964       C  0.13356457  0.30697625  0.68683043     0.03800
C1965       C  0.12106332  0.31697081  0.69398682    -0.12200
C1966       C  0.09890460  0.30081374  0.70085581     0.18700
C1967       C  0.08907322  0.27421596  0.70054595    -0.09200
C1968       C  0.10133248  0.26410971  0.69344121    -0.02200
H1969       H  0.12862696  0.33749866  0.69417542     0.05200
C1970       C  0.08557227  0.31173274  0.70796777     0.20700
H1971       H  0.09307630  0.24348984  0.69347267     0.10400
C1972       C  0.06373282  0.31067135  0.70280066    -0.15500
C1973       C  0.04951626  0.31921492  0.70949617     0.03400
C1974       C  0.05686505  0.32869901  0.72177193    -0.10900
C1975       C  0.07935060  0.33057517  0.72675031    -0.00900
C1976       C  0.09366635  0.32219232  0.71994293    -0.06100
H1977       H  0.05767282  0.30305128  0.69350197     0.06400
H1978       H  0.08549971  0.33802075  0.73606372     0.09800
Br1979     Br  0.05896970  0.25086804  0.70982096    -0.05800
Br1980     Br  0.16391634  0.33176548  0.67816047    -0.02700
Br1981     Br  0.02118941  0.31863136  0.70096298     0.00100
Br1982     Br  0.12368112  0.32459451  0.72744432    -0.04200
C1983       C  0.12483807  0.20147581  0.67591540    -0.11600
C1984       C  0.13907293  0.19021717  0.68012339     0.03800
C1985       C  0.12688859  0.16352493  0.68161996    -0.12200
C1986       C  0.10065532  0.14792232  0.67892081     0.18700
C1987       C  0.08658682  0.15917603  0.67457225    -0.09200
C1988       C  0.09865671  0.18577884  0.67318436    -0.02200
H1989       H  0.13773498  0.15496007  0.68511623     0.05200
C1990       C  0.08764189  0.12005383  0.68123773     0.20700
H1991       H  0.08758290  0.19425953  0.66990071     0.10400
C1992       C  0.07202648  0.11013061  0.69182101    -0.15500
C1993       C  0.05722700  0.08364540  0.69372570     0.03400
C1994       C  0.05836923  0.06670168  0.68506008    -0.10900
C1995       C  0.07462333  0.07666967  0.67466645    -0.00900
C1996       C  0.08893844  0.10317282  0.67261203    -0.06100
H1997       H  0.07091053  0.12307225  0.69847030     0.06400
H1998       H  0.07553164  0.06376446  0.66792323     0.09800
Br1999     Br  0.05086042  0.13878630  0.67034453    -0.05800
Br2000     Br  0.17453429  0.21062442  0.68481819    -0.02700
Br2001     Br  0.03628369  0.07166281  0.70842691     0.00100
Br2002     Br  0.10864683  0.11542616  0.65756761    -0.04200
C2003       C  0.28518110  0.32846815  0.60969989    -0.11600
C2004       C  0.28736207  0.34581156  0.61918648     0.03800
C2005       C  0.26952877  0.33732618  0.62899291    -0.12200
C2006       C  0.24953422  0.31172977  0.62961213     0.18700
C2007       C  0.24748835  0.29441100  0.62027090    -0.09200
C2008       C  0.26530121  0.30275714  0.61050779    -0.02200
H2009       H  0.27128344  0.35070119  0.63617365     0.05200
C2010       C  0.23034984  0.30342179  0.63978042     0.20700
H2011       H  0.26319472  0.28919070  0.60336102     0.10400
C2012       C  0.21078745  0.30955302  0.63911933    -0.15500
C2013       C  0.19038789  0.29923477  0.64766610     0.03400
C2014       C  0.18954299  0.28263023  0.65715823    -0.10900
C2015       C  0.20973108  0.27738341  0.65806327    -0.00900
C2016       C  0.23007084  0.28772162  0.64953911    -0.06100
H2017       H  0.21077646  0.32147352  0.63156847     0.06400
H2018       H  0.20943388  0.26474703  0.66532214     0.09800
Br2019     Br  0.21995176  0.25937693  0.62016825    -0.05800
Br2020     Br  0.31476034  0.38095387  0.61971857    -0.02700
Br2021     Br  0.16295308  0.30615021  0.64500347     0.00100
Br2022     Br  0.25670795  0.27936384  0.65138421    -0.04200
C2023       C  0.40650615  0.39964095  0.60135287    -0.11600
C2024       C  0.40685149  0.39314962  0.61398274     0.03800
C2025       C  0.42936129  0.40666858  0.62097041    -0.12200
C2026       C  0.45182880  0.42663255  0.61566829     0.18700
C2027       C  0.45139054  0.43368124  0.60321511    -0.09200
C2028       C  0.42873174  0.42046014  0.59622526    -0.02200
H2029       H  0.42960097  0.40102446  0.63054023     0.05200
C2030       C  0.47608798  0.43699274  0.62278144     0.20700
H2031       H  0.42889086  0.42566508  0.58654641     0.10400
C2032       C  0.48667677  0.42120628  0.62423838    -0.15500
C2033       C  0.50839655  0.42867041  0.63158485     0.03400
C2034       C  0.52062982  0.45307420  0.63756256    -0.10900
C2035       C  0.50986677  0.46894902  0.63602524    -0.00900
C2036       C  0.48767807  0.46099250  0.62879042    -0.06100
H2037       H  0.47745138  0.40246504  0.61984547     0.06400
H2038       H  0.51855463  0.48751951  0.64054483     0.09800
Br2039     Br  0.48178789  0.45970197  0.59510146    -0.05800
Br2040     Br  0.37734072  0.36624789  0.62237246    -0.02700
Br2041     Br  0.51811891  0.40292650  0.63355220     0.00100
Br2042     Br  0.47313383  0.48283473  0.62780749    -0.04200
C2043       C  0.25909427  0.49674847  0.48163683    -0.11600
C2044       C  0.26353017  0.50735788  0.46952825     0.03800
C2045       C  0.27807266  0.53403384  0.46793276    -0.12200
C2046       C  0.28840895  0.55041138  0.47821617     0.18700
C2047       C  0.28441837  0.53991771  0.49024442    -0.09200
C2048       C  0.26999229  0.51333274  0.49187189    -0.02200
H2049       H  0.28116473  0.54206815  0.45864717     0.05200
C2050       C  0.30162975  0.57846524  0.47639726     0.20700
H2051       H  0.26689430  0.50563751  0.50123043     0.10400
C2052       C  0.28761185  0.59091704  0.47817377    -0.15500
C2053       C  0.29940203  0.61762250  0.47742621     0.03400
C2054       C  0.32601933  0.63258270  0.47452023    -0.10900
C2055       C  0.33988165  0.61972730  0.47258603    -0.00900
C2056       C  0.32795978  0.59297462  0.47360433    -0.06100
H2057       H  0.26737430  0.57972147  0.48053181     0.06400
H2058       H  0.36022191  0.63049343  0.47042371     0.09800
Br2059     Br  0.29809676  0.56130730  0.50470629    -0.05800
Br2060     Br  0.25153969  0.48660445  0.45478023    -0.02700
Br2061     Br  0.27766069  0.63146108  0.48150474     0.00100
Br2062     Br  0.34846109  0.57707067  0.47165011    -0.04200
C2063       C  0.24516461  0.42198882  0.50573453    -0.11600
C2064       C  0.25320880  0.43409147  0.51745813     0.03800
C2065       C  0.26447640  0.42535528  0.52609578    -0.12200
C2066       C  0.26829942  0.40480991  0.52324631     0.18700
C2067       C  0.25978222  0.39235410  0.51164569    -0.09200
C2068       C  0.24813676  0.40083837  0.50305209    -0.02200
H2069       H  0.27040654  0.43471407  0.53506960     0.05200
C2070       C  0.28055595  0.39626453  0.53262494     0.20700
H2071       H  0.24241303  0.39159379  0.49404626     0.10400
C2072       C  0.26600157  0.37198106  0.53807082    -0.15500
C2073       C  0.27661413  0.36312958  0.54701523     0.03400
C2074       C  0.30257663  0.37886713  0.55078648    -0.10900
C2075       C  0.31700152  0.40339552  0.54537740    -0.00900
C2076       C  0.30626385  0.41211622  0.53640621    -0.06100
H2077       H  0.24609272  0.35980545  0.53535628     0.06400
H2078       H  0.33688814  0.41586304  0.54803307     0.09800
Br2079     Br  0.26518005  0.36479256  0.50678951    -0.05800
Br2080     Br  0.24857490  0.46214308  0.52236080    -0.02700
Br2081     Br  0.25391011  0.32953741  0.55367898     0.00100
Br2082     Br  0.32776464  0.44547221  0.52926887    -0.04200
C2083       C  0.75568841  0.84402183  0.69726502    -0.11600
C2084       C  0.73031388  0.83400735  0.70173593     0.03800
C2085       C  0.71831321  0.81070871  0.70835153    -0.12200
C2086       C  0.73123047  0.79716495  0.71070807     0.18700
C2087       C  0.75662971  0.80737743  0.70640819    -0.09200
C2088       C  0.76853901  0.83046683  0.69979469    -0.02200
H2089       H  0.69883419  0.80313404  0.71169435     0.05200
C2090       C  0.71801094  0.77216987  0.71738852     0.20700
H2091       H  0.78803494  0.83777016  0.69652745     0.10400
C2092       C  0.71280868  0.74977424  0.71097621    -0.15500
C2093       C  0.70239706  0.72611301  0.71712213     0.03400
C2094       C  0.69664005  0.72441644  0.72998779    -0.10900
C2095       C  0.70085297  0.74670508  0.73626556    -0.00900
C2096       C  0.71161662  0.77043925  0.73011209    -0.06100
H2097       H  0.71732263  0.75082089  0.70117173     0.06400
H2098       H  0.69669966  0.74590077  0.74610120     0.09800
Br2099     Br  0.77628201  0.79093242  0.70963451    -0.05800
Br2100     Br  0.71169113  0.85190702  0.69983076    -0.02700
Br2101     Br  0.69598922  0.69691666  0.70722514     0.00100
Br2102     Br  0.71883913  0.80020800  0.73968660    -0.04200
C2103       C  0.97465799  0.98825908  0.68963730    -0.11600
C2104       C  0.96026116  0.97438849  0.70008390     0.03800
C2105       C  0.93336227  0.96138751  0.69961717    -0.12200
C2106       C  0.92054542  0.96159005  0.68872446     0.18700
C2107       C  0.93510503  0.97573335  0.67832275    -0.09200
C2108       C  0.96192980  0.98910283  0.67890167    -0.02200
H2109       H  0.92239543  0.95092064  0.70773121     0.05200
C2110       C  0.89207680  0.94697479  0.68830521     0.20700
H2111       H  0.97293056  0.99958488  0.67079547     0.10400
C2112       C  0.87871761  0.96016467  0.68635320    -0.15500
C2113       C  0.85194339  0.94693597  0.68515236     0.03400
C2114       C  0.83791706  0.91989491  0.68621958    -0.10900
C2115       C  0.85130374  0.90681802  0.68857595    -0.00900
C2116       C  0.87811303  0.92004106  0.68949703    -0.06100
H2117       H  0.88927246  0.98092778  0.68560498     0.06400
H2118       H  0.84091709  0.88605371  0.68932733     0.09800
Br2119     Br  0.91941748  0.97619508  0.66284645    -0.05800
Br2120     Br  0.97656976  0.97331486  0.71521817    -0.02700
Br2121     Br  0.83585569  0.96712298  0.68251947     0.00100
Br2122     Br  0.89476408  0.90024733  0.69160397    -0.04200
C2123       C  0.70905313  0.95111873  0.61791847    -0.11600
C2124       C  0.69303537  0.92707480  0.62375339     0.03800
C2125       C  0.70304348  0.91824828  0.63303396    -0.12200
C2126       C  0.72875393  0.93282855  0.63680501     0.18700
C2127       C  0.74473909  0.95668434  0.63103503    -0.09200
C2128       C  0.73487915  0.96557504  0.62173630    -0.02200
H2129       H  0.69067432  0.89972944  0.63731474     0.05200
C2130       C  0.73874321  0.92250457  0.64648021     0.20700
H2131       H  0.74759729  0.98404552  0.61750854     0.10400
C2132       C  0.75792536  0.91683503  0.64325375    -0.15500
C2133       C  0.76846929  0.90789889  0.65216637     0.03400
C2134       C  0.75946320  0.90393570  0.66455854    -0.10900
C2135       C  0.73963122  0.90869987  0.66771623    -0.00900
C2136       C  0.72940915  0.91813747  0.65882841    -0.06100
H2137       H  0.76492475  0.91963301  0.63374119     0.06400
H2138       H  0.73272777  0.90598031  0.67725241     0.09800
Br2139     Br  0.78003121  0.97827451  0.63577482    -0.05800
Br2140     Br  0.65743425  0.90483370  0.61965924    -0.02700
Br2141     Br  0.79466312  0.90073272  0.64683309     0.00100
Br2142     Br  0.70394896  0.92631421  0.66417286    -0.04200
C2143       C  0.63168180  0.00278806  0.60926419    -0.11600
C2144       C  0.63333438  0.00648916  0.62229020     0.03800
C2145       C  0.62002604  0.01716566  0.62805369    -0.12200
C2146       C  0.60488096  0.02420275  0.62108038     0.18700
C2147       C  0.60243330  0.01968162  0.60815842    -0.09200
C2148       C  0.61558673  0.00881470  0.60237441    -0.02200
H2149       H  0.62190133  0.02048945  0.63800802     0.05200
C2150       C  0.59399996  0.03846682  0.62734955     0.20700
H2151       H  0.61420479  0.00623599  0.59236919     0.10400
C2152       C  0.61070130  0.06412265  0.63057476    -0.15500
C2153       C  0.60184900  0.07832950  0.63700118     0.03400
C2154       C  0.57554374  0.06677542  0.64036227    -0.10900
C2155       C  0.55887421  0.04089609  0.63718694    -0.00900
C2156       C  0.56790488  0.02678555  0.63069840    -0.06100
H2157       H  0.63085766  0.07306218  0.62818735     0.06400
H2158       H  0.53873319  0.03168921  0.63962120     0.09800
Br2159     Br  0.58285405  0.02969147  0.59794206    -0.05800
Br2160     Br  0.65288495  0.99680636  0.63275888    -0.02700
Br2161     Br  0.62745168  0.11281294  0.64147970     0.00100
Br2162     Br  0.54412803  0.99155409  0.62678654    -0.04200
C2163       C  0.40762544  0.71592049  0.47527272    -0.11600
C2164       C  0.42188233  0.74234740  0.47856747     0.03800
C2165       C  0.44869322  0.75480485  0.47939372    -0.12200
C2166       C  0.46190678  0.74165280  0.47714635     0.18700
C2167       C  0.44801413  0.71548556  0.47400369    -0.09200
C2168       C  0.42123283  0.70294017  0.47299024    -0.02200
H2169       H  0.45934434  0.77484571  0.48205853     0.05200
C2170       C  0.49000207  0.75519371  0.47905847     0.20700
H2171       H  0.41105676  0.68279464  0.47053253     0.10400
C2172       C  0.49952476  0.76071743  0.49124452    -0.15500
C2173       C  0.52594342  0.77317220  0.49356833     0.03400
C2174       C  0.54343117  0.78060027  0.48350928    -0.10900
C2175       C  0.53375633  0.77518736  0.47129149    -0.00900
C2176       C  0.50730771  0.76270284  0.46900925    -0.06100
H2177       H  0.48623469  0.75484516  0.49902054     0.06400
H2178       H  0.54684527  0.78090874  0.46344853     0.09800
Br2179     Br  0.46469618  0.69578692  0.47166214    -0.05800
Br2180     Br  0.40688094  0.76290391  0.48291522    -0.02700
Br2181     Br  0.53648217  0.77753276  0.51069409     0.00100
Br2182     Br  0.49570513  0.75674957  0.45205661    -0.04200
C2183       C  0.62060798  0.84006432  0.50689235    -0.11600
C2184       C  0.62013753  0.83109153  0.51904511     0.03800
C2185       C  0.62815450  0.84818012  0.52912070    -0.12200
C2186       C  0.63648993  0.87424946  0.52725265     0.18700
C2187       C  0.63728579  0.88330012  0.51508102    -0.09200
C2188       C  0.62931084  0.86620610  0.50499966    -0.02200
H2189       H  0.62748119  0.84106973  0.53844096     0.05200
C2190       C  0.64401302  0.89171267  0.53810341     0.20700
H2191       H  0.62926824  0.87318390  0.49572808     0.10400
C2192       C  0.66975940  0.90507235  0.54184738    -0.15500
C2193       C  0.67775080  0.92225333  0.55188410     0.03400
C2194       C  0.65963371  0.92642062  0.55840100    -0.10900
C2195       C  0.63372131  0.91259453  0.55464906    -0.00900
C2196       C  0.62587697  0.89538610  0.54464180    -0.06100
H2197       H  0.68376519  0.90214638  0.53688256     0.06400
H2198       H  0.61941028  0.91530161  0.55943805     0.09800
Br2199     Br  0.64831696  0.91868501  0.51192561    -0.05800
Br2200     Br  0.60786245  0.79548366  0.52229950    -0.02700
Br2201     Br  0.71359941  0.93868018  0.55609470     0.00100
Br2202     Br  0.59022381  0.87745066  0.54011918    -0.04200
C2203       C  0.79330193  0.16798667  0.53216497    -0.11600
C2204       C  0.78897666  0.16829900  0.54508905     0.03800
C2205       C  0.77833297  0.14552498  0.55192560    -0.12200
C2206       C  0.77170277  0.12221445  0.54612174     0.18700
C2207       C  0.77698336  0.12192942  0.53337196    -0.09200
C2208       C  0.78803404  0.14481523  0.52650682    -0.02200
H2209       H  0.77433925  0.14582907  0.56173154     0.05200
C2210       C  0.75674230  0.09828934  0.55329109     0.20700
H2211       H  0.79094026  0.14418831  0.51660411     0.10400
C2212       C  0.73039650  0.08870595  0.55489898    -0.15500
C2213       C  0.71540731  0.06678114  0.56206985     0.03400
C2214       C  0.72692640  0.05393722  0.56787059    -0.10900
C2215       C  0.75351118  0.06386266  0.56628251    -0.00900
C2216       C  0.76837656  0.08581640  0.55905290    -0.06100
H2217       H  0.72147287  0.09853941  0.55060582     0.06400
H2218       H  0.76279910  0.05441665  0.57058649     0.09800
Br2219     Br  0.76741191  0.09045228  0.52480458    -0.05800
Br2220     Br  0.79680993  0.19909028  0.55396984    -0.02700
Br2221     Br  0.67969981  0.05650155  0.56375986     0.00100
Br2222     Br  0.80448487  0.09833766  0.55737921    -0.04200
C2223       C  0.93484705  0.27882401  0.44920321    -0.11600
C2224       C  0.93457952  0.29350045  0.45938726     0.03800
C2225       C  0.91609221  0.28177247  0.46875266    -0.12200
C2226       C  0.89760178  0.25560493  0.46811299     0.18700
C2227       C  0.89751594  0.24101822  0.45787602    -0.09200
C2228       C  0.91631425  0.25256008  0.44862488    -0.02200
H2229       H  0.91603765  0.29313505  0.47655976     0.05200
C2230       C  0.87752523  0.24446220  0.47779999     0.20700
H2231       H  0.91607443  0.24110875  0.44079287     0.10400
C2232       C  0.85753163  0.24982241  0.47734436    -0.15500
C2233       C  0.83856730  0.24078240  0.48653987     0.03400
C2234       C  0.83951795  0.22601289  0.49662509    -0.10900
C2235       C  0.85946037  0.22025409  0.49686394    -0.00900
C2236       C  0.87843215  0.22946447  0.48758845    -0.06100
H2237       H  0.85674426  0.26122845  0.46976296     0.06400
H2238       H  0.86077775  0.20919589  0.50445619     0.09800
Br2239     Br  0.87134609  0.20571283  0.45588021    -0.05800
Br2240     Br  0.95955712  0.32924156  0.46135902    -0.02700
Br2241     Br  0.81192662  0.24912835  0.48415729     0.00100
Br2242     Br  0.90581495  0.22207469  0.48889816    -0.04200
C2243       C  0.01430273  0.38280100  0.39932825    -0.11600
C2244       C  0.00985179  0.40258190  0.40345533     0.03800
C2245       C  0.01941191  0.42538086  0.39653091    -0.12200
C2246       C  0.03334108  0.42899161  0.38548910     0.18700
C2247       C  0.03789010  0.40942729  0.38143040    -0.09200
C2248       C  0.02829170  0.38667899  0.38824383    -0.02200
H2249       H  0.01622883  0.44053547  0.39985581     0.05200
C2250       C  0.04457499  0.45382821  0.37872432     0.20700
H2251       H  0.03223585  0.37205352  0.38489218     0.10400
C2252       C  0.06494633  0.47580014  0.38416165    -0.15500
C2253       C  0.07816399  0.49887937  0.37750763     0.03400
C2254       C  0.07131771  0.50018424  0.36503411    -0.10900
C2255       C  0.04974696  0.47857445  0.35992783    -0.00900
C2256       C  0.03633274  0.45562700  0.36668950    -0.06100
H2257       H  0.07094811  0.47483667  0.39353149     0.06400
H2258       H  0.04373034  0.47922330  0.35052183     0.09800
Br2259     Br  0.05853953  0.41342029  0.36703720    -0.05800
Br2260     Br  0.99216903  0.40059938  0.41867896    -0.02700
Br2261     Br  0.10453601  0.52805403  0.38627245     0.00100
Br2262     Br  0.00689571  0.42717352  0.35912859    -0.04200
C2263       C  0.06526549  0.33687537  0.43968461    -0.11600
C2264       C  0.08878138  0.34412836  0.43352465     0.03800
C2265       C  0.11206887  0.35706459  0.44010522    -0.12200
C2266       C  0.11246479  0.36264547  0.45281061     0.18700
C2267       C  0.08907085  0.35425015  0.45909158    -0.09200
C2268       C  0.06584233  0.34162175  0.45255289    -0.02200
H2269       H  0.13002462  0.36347376  0.43520789     0.05200
C2270       C  0.13734478  0.37912394  0.45917565     0.20700
H2271       H  0.04814368  0.33600996  0.45754244     0.10400
C2272       C  0.14689133  0.40560235  0.45976204    -0.15500
C2273       C  0.16952320  0.42192858  0.46625994     0.03400
C2274       C  0.18328797  0.41172169  0.47245004    -0.10900
C2275       C  0.17360911  0.38503282  0.47168433    -0.00900
C2276       C  0.15098460  0.36886244  0.46508525    -0.06100
H2277       H  0.13635665  0.41357275  0.45529110     0.06400
H2278       H  0.18369267  0.37663304  0.47619054     0.09800
Br2279     Br  0.08806200  0.36038615  0.47655792    -0.05800
Br2280     Br  0.09091847  0.33875455  0.41604270    -0.02700
Br2281     Br  0.17898317  0.45752297  0.46667739     0.00100
Br2282     Br  0.13913181  0.33281589  0.46444974    -0.04200
C2283       C  0.84338133  0.11028721  0.30698706    -0.11600
C2284       C  0.84323076  0.10658285  0.29398520     0.03800
C2285       C  0.81998791  0.09490157  0.28746831    -0.12200
C2286       C  0.79664407  0.08657239  0.29367760     0.18700
C2287       C  0.79674521  0.09090281  0.30656897    -0.09200
C2288       C  0.82005478  0.10296725  0.31310251    -0.02200
H2289       H  0.82004566  0.09170834  0.27753711     0.05200
C2290       C  0.77242124  0.07193289  0.28662509     0.20700
H2291       H  0.81980763  0.10546943  0.32308545     0.10400
C2292       C  0.75888212  0.04512134  0.28746071    -0.15500
C2293       C  0.73673444  0.03030377  0.28036520     0.03400
C2294       C  0.72753142  0.04246867  0.27223922    -0.10900
C2295       C  0.74121165  0.06948418  0.27155005    -0.00900
C2296       C  0.76355848  0.08413524  0.27856515    -0.06100
H2297       H  0.76583985  0.03566656  0.29354298     0.06400
H2298       H  0.73471500  0.07930847  0.26545659     0.09800
Br2299     Br  0.76543865  0.07984471  0.31563656    -0.05800
Br2300     Br  0.87413919  0.11725670  0.28457418    -0.02700
Br2301     Br  0.72069180  0.99371495  0.28240832     0.00100
Br2302     Br  0.78150221  0.12077748  0.27684618    -0.04200
C2303       C  0.97348132  0.02082332  0.31132585    -0.11600
C2304       C  0.94829185  0.01135293  0.31613614     0.03800
C2305       C  0.93784103  0.02748106  0.31670749    -0.12200
C2306       C  0.95167616  0.05293394  0.31252306     0.18700
C2307       C  0.97645821  0.06233950  0.30759963    -0.09200
C2308       C  0.98708121  0.04640127  0.30703282    -0.02200
H2309       H  0.91878699  0.02018876  0.32060217     0.05200
C2310       C  0.94006926  0.06944815  0.31366043     0.20700
H2311       H  0.00622053  0.05423396  0.30318392     0.10400
C2312       C  0.95103754  0.09051551  0.32177925    -0.15500
C2313       C  0.94003109  0.10598103  0.32349468     0.03400
C2314       C  0.91694240  0.09998125  0.31718686    -0.10900
C2315       C  0.90650444  0.07909031  0.30881167    -0.00900
C2316       C  0.91783429  0.06403019  0.30700406    -0.06100
H2317       H  0.96831482  0.09491074  0.32686207     0.06400
H2318       H  0.88915324  0.07406282  0.30365465     0.09800
Br2319     Br  0.99633452  0.09665577  0.30124605    -0.05800
Br2320     Br  0.92695350  0.97728938  0.32264804    -0.02700
Br2321     Br  0.95843716  0.13502152  0.33434253     0.00100
Br2322     Br  0.90250028  0.03657466  0.29510324    -0.04200
C2323       C  0.95486399  0.24974001  0.39207908    -0.11600
C2324       C  0.96326029  0.23225725  0.38904729     0.03800
C2325       C  0.95117795  0.21435134  0.37946046    -0.12200
C2326       C  0.93108471  0.21357680  0.37248896     0.18700
C2327       C  0.92175936  0.22997966  0.37591638    -0.09200
C2328       C  0.93358278  0.24772025  0.38559492    -0.02200
H2329       H  0.95808031  0.20134992  0.37715126     0.05200
C2330       C  0.92118675  0.19640959  0.36139454     0.20700
H2331       H  0.92639225  0.26050917  0.38782244     0.10400
C2332       C  0.89508601  0.17733989  0.36061843    -0.15500
C2333       C  0.88566886  0.16044169  0.35043774     0.03400
C2334       C  0.90269391  0.16179396  0.34103134    -0.10900
C2335       C  0.92866930  0.18097395  0.34175901    -0.00900
C2336       C  0.93787773  0.19842042  0.35165251    -0.06100
H2337       H  0.88202309  0.17534050  0.36805503     0.06400
H2338       H  0.94192312  0.18249340  0.33451427     0.09800
Br2339     Br  0.89399181  0.23019304  0.36726248    -0.05800
Br2340     Br  0.99149561  0.23186678  0.39713974    -0.02700
Br2341     Br  0.84980054  0.13499334  0.35026589     0.00100
Br2342     Br  0.97331507  0.22517146  0.35111734    -0.04200
C2343       C  0.84749045  0.60454401  0.52644523    -0.11600
C2344       C  0.85276392  0.62537377  0.53429642     0.03800
C2345       C  0.87601450  0.63788370  0.54088481    -0.12200
C2346       C  0.89448454  0.63032606  0.53953886     0.18700
C2347       C  0.88956964  0.61021172  0.53123860    -0.09200
C2348       C  0.86612863  0.59733270  0.52493842    -0.02200
H2349       H  0.87942233  0.65313467  0.54731901     0.05200
C2350       C  0.91795551  0.64221608  0.54739577     0.20700
H2351       H  0.86238355  0.58149061  0.51882113     0.10400
C2352       C  0.92201696  0.62650660  0.55560684    -0.15500
C2353       C  0.94481098  0.63615728  0.56239305     0.03400
C2354       C  0.96393244  0.66225461  0.56127231    -0.10900
C2355       C  0.95928006  0.67837226  0.55362603    -0.00900
C2356       C  0.93659397  0.66853297  0.54663141    -0.06100
H2357       H  0.90753271  0.60639050  0.55652765     0.06400
H2358       H  0.97381646  0.69845852  0.55267155     0.09800
Br2359     Br  0.91441806  0.59985418  0.52798914    -0.05800
Br2360     Br  0.82811282  0.63612347  0.53706798    -0.02700
Br2361     Br  0.94841520  0.61284804  0.57326074     0.00100
Br2362     Br  0.93280918  0.69138993  0.53557263    -0.04200
C2363       C  0.72122779  0.63584276  0.45232697    -0.11600
C2364       C  0.71672147  0.61044678  0.45304015     0.03800
C2365       C  0.72682468  0.60324845  0.46296311    -0.12200
C2366       C  0.74119638  0.62069378  0.47240112     0.18700
C2367       C  0.74519206  0.64577911  0.47190569    -0.09200
C2368       C  0.73538030  0.65316342  0.46192638    -0.02200
H2369       H  0.72391005  0.58397731  0.46318220     0.05200
C2370       C  0.75329432  0.61276106  0.48212566     0.20700
H2371       H  0.73877943  0.67260873  0.46171923     0.10400
C2372       C  0.78015572  0.62416846  0.48233064    -0.15500
C2373       C  0.79231154  0.61558540  0.49052883     0.03400
C2374       C  0.77745774  0.59525232  0.49886009    -0.10900
C2375       C  0.75056439  0.58410431  0.49873248    -0.00900
C2376       C  0.73847248  0.59262134  0.49047928    -0.06100
H2377       H  0.79170153  0.63926345  0.47573164     0.06400
H2378       H  0.73879565  0.56848940  0.50504905     0.09800
Br2379     Br  0.76339360  0.67040721  0.48479520    -0.05800
Br2380     Br  0.69834022  0.58487367  0.44054090    -0.02700
Br2381     Br  0.82887294  0.63068000  0.48888961     0.00100
Br2382     Br  0.70167936  0.57617240  0.49100132    -0.04200
C2383       C  0.62692231  0.61697640  0.39799289    -0.11600
C2384       C  0.62880164  0.62013065  0.38491037     0.03800
C2385       C  0.60670257  0.60744448  0.37753289    -0.12200
C2386       C  0.58259879  0.59146300  0.38294262     0.18700
C2387       C  0.58088475  0.58711187  0.39587243    -0.09200
C2388       C  0.60297267  0.59969093  0.40328302    -0.02200
H2389       H  0.60818693  0.61069229  0.36756672     0.05200
C2390       C  0.55922004  0.58204504  0.37522833     0.20700
H2391       H  0.60118392  0.59688184  0.41327552     0.10400
C2392       C  0.54692098  0.55709645  0.37032739    -0.15500
C2393       C  0.52420928  0.54772073  0.36334656     0.03400
C2394       C  0.51348760  0.56361836  0.36115672    -0.10900
C2395       C  0.52625549  0.58870709  0.36606013    -0.00900
C2396       C  0.54878352  0.59789065  0.37299554    -0.06100
H2397       H  0.55482411  0.54476195  0.37210248     0.06400
H2398       H  0.51873172  0.60143686  0.36451799     0.09800
Br2399     Br  0.54846128  0.56553044  0.40385004    -0.05800
Br2400     Br  0.66098797  0.64105713  0.37652445    -0.02700
Br2401     Br  0.50840871  0.51268839  0.35785299     0.00100
Br2402     Br  0.56441631  0.63216252  0.37951766    -0.04200
C2403       C  0.62620331  0.78872149  0.47218012    -0.11600
C2404       C  0.61879012  0.77951065  0.45986393     0.03800
C2405       C  0.62986657  0.76682897  0.45383538    -0.12200
C2406       C  0.64876179  0.76350913  0.45968901     0.18700
C2407       C  0.65794970  0.77479282  0.47144927    -0.09200
C2408       C  0.64655239  0.78706937  0.47763600    -0.02200
H2409       H  0.62332825  0.75905108  0.44459032     0.05200
C2410       C  0.65783081  0.74745247  0.45350065     0.20700
H2411       H  0.65304020  0.79450877  0.48693256     0.10400
C2412       C  0.67225419  0.75613248  0.44248842    -0.15500
C2413       C  0.67985217  0.74079299  0.43602325     0.03400
C2414       C  0.67281362  0.71602869  0.44052922    -0.10900
C2415       C  0.65813213  0.70736814  0.45152598    -0.00900
C2416       C  0.65064686  0.72276762  0.45797146    -0.06100
H2417       H  0.67738322  0.77483257  0.43883670     0.06400
H2418       H  0.65234986  0.68847632  0.45513674     0.09800
Br2419     Br  0.68599924  0.77385358  0.47935972    -0.05800
Br2420     Br  0.59444198  0.78440191  0.45048098    -0.02700
Br2421     Br  0.69839278  0.75439773  0.42074303     0.00100
Br2422     Br  0.62953348  0.70872143  0.47252367    -0.04200
C2423       C  0.90968162  0.72336136  0.31512241    -0.11600
C2424       C  0.93673711  0.73582569  0.31389844     0.03800
C2425       C  0.94803121  0.72412653  0.30720413    -0.12200
C2426       C  0.93293071  0.70001735  0.30167756     0.18700
C2427       C  0.90610333  0.68690053  0.30343066    -0.09200
C2428       C  0.89468487  0.69858377  0.31010453    -0.02200
H2429       H  0.96874339  0.73408292  0.30613880     0.05200
C2430       C  0.94562163  0.68939873  0.29382869     0.20700
H2431       H  0.87396283  0.68854368  0.31107922     0.10400
C2432       C  0.96095028  0.68080408  0.29944613    -0.15500
C2433       C  0.97451480  0.67221194  0.29219900     0.03400
C2434       C  0.97277591  0.67209203  0.27907663    -0.10900
C2435       C  0.95702400  0.68023334  0.27350462    -0.00900
C2436       C  0.94382622  0.68919317  0.28074985    -0.06100
H2437       H  0.96249377  0.68096311  0.30947873     0.06400
H2438       H  0.95580249  0.68062656  0.26347094     0.09800
Br2439     Br  0.88446611  0.65304974  0.29686474    -0.05800
Br2440     Br  0.95953227  0.76828873  0.32159046    -0.02700
Br2441     Br  0.99430357  0.66001748  0.30075552     0.00100
Br2442     Br  0.92505440  0.70265866  0.27233595    -0.04200
C2443       C  0.90611003  0.80204273  0.32277023    -0.11600
C2444       C  0.90495426  0.81800751  0.33213517     0.03800
C2445       C  0.91638818  0.84447495  0.33011113    -0.12200
C2446       C  0.92928683  0.85561644  0.31895962     0.18700
C2447       C  0.93085849  0.83992915  0.30970940    -0.09200
C2448       C  0.91924685  0.81342306  0.31162820    -0.02200
H2449       H  0.91574769  0.85655572  0.33739576     0.05200
C2450       C  0.94283604  0.88387193  0.31760202     0.20700
H2451       H  0.92070754  0.80169831  0.30439502     0.10400
C2452       C  0.96528871  0.89876379  0.32450482    -0.15500
C2453       C  0.97929369  0.92547640  0.32322910     0.03400
C2454       C  0.97091452  0.93777434  0.31484738    -0.10900
C2455       C  0.94784375  0.92288723  0.30829160    -0.00900
C2456       C  0.93381731  0.89612189  0.30961229    -0.06100
H2457       H  0.97198759  0.88951375  0.33089955     0.06400
H2458       H  0.94088841  0.93206061  0.30199423     0.09800
Br2459     Br  0.94987104  0.85408088  0.29460549    -0.05800
Br2460     Br  0.89034183  0.80571468  0.34834716    -0.02700
Br2461     Br  0.00865990  0.94412854  0.33381789     0.00100
Br2462     Br  0.90229611  0.87708761  0.30052589    -0.04200
C2463       C  0.84193875  0.72129503  0.34224506    -0.11600
C2464       C  0.84368535  0.70935323  0.35318438     0.03800
C2465       C  0.82409295  0.70058555  0.36213840    -0.12200
C2466       C  0.80253226  0.70341351  0.36038622     0.18700
C2467       C  0.80030839  0.71438000  0.34920535    -0.09200
C2468       C  0.81999786  0.72337063  0.34031332    -0.02200
H2469       H  0.82620317  0.69249538  0.37075421     0.05200
C2470       C  0.78389511  0.69696307  0.37076649     0.20700
H2471       H  0.81844198  0.73256256  0.33195744     0.10400
C2472       C  0.78195357  0.71674220  0.37661367    -0.15500
C2473       C  0.76549096  0.71181915  0.38679215     0.03400
C2474       C  0.75072199  0.68650348  0.39152816    -0.10900
C2475       C  0.75271661  0.66674267  0.38554459    -0.00900
C2476       C  0.76894616  0.67174070  0.37527477    -0.06100
H2477       H  0.79347926  0.73626205  0.37324800     0.06400
H2478       H  0.74138120  0.64711015  0.38877070     0.09800
Br2479     Br  0.77083712  0.71762721  0.34569188    -0.05800
Br2480     Br  0.87362593  0.70713517  0.35700727    -0.02700
Br2481     Br  0.76438555  0.74080393  0.39349244     0.00100
Br2482     Br  0.76925154  0.64331309  0.36739993    -0.04200
C2483       C  0.77753692  0.23764188  0.52110965    -0.11600
C2484       C  0.75169918  0.22536642  0.52522321     0.03800
C2485       C  0.73912163  0.23944569  0.52614844    -0.12200
C2486       C  0.75175946  0.26550745  0.52299869     0.18700
C2487       C  0.77749970  0.27788451  0.51911901    -0.09200
C2488       C  0.79018010  0.26395372  0.51819257    -0.02200
H2489       H  0.71914741  0.22987852  0.52899908     0.05200
C2490       C  0.73721664  0.27902892  0.52309065     0.20700
H2491       H  0.80997278  0.27372005  0.51504316     0.10400
C2492       C  0.73751664  0.29257440  0.53375136    -0.15500
C2493       C  0.72334322  0.30512596  0.53411290     0.03400
C2494       C  0.70820469  0.30355467  0.52380092    -0.10900
C2495       C  0.70799331  0.29003379  0.51314577    -0.00900
C2496       C  0.72269614  0.27810873  0.51266201    -0.06100
H2497       H  0.74879040  0.29336398  0.54177523     0.06400
H2498       H  0.69677676  0.28921699  0.50509240     0.09800
Br2499     Br  0.79568241  0.31350766  0.51458728    -0.05800
Br2500     Br  0.73158817  0.18922210  0.52868116    -0.02700
Br2501     Br  0.72454605  0.32338444  0.54897074     0.00100
Br2502     Br  0.72304384  0.26142034  0.49749928    -0.04200
C2503       C  0.70500917  0.38283944  0.52342079    -0.11600
C2504       C  0.69602249  0.39685698  0.53015249     0.03800
C2505       C  0.70900881  0.42365044  0.52923314    -0.12200
C2506       C  0.73085550  0.43671801  0.52165749     0.18700
C2507       C  0.73996780  0.42272025  0.51505445    -0.09200
C2508       C  0.72711923  0.39601722  0.51602341    -0.02200
H2509       H  0.70216855  0.43438270  0.53450963     0.05200
C2510       C  0.74433363  0.46498414  0.52090633     0.20700
H2511       H  0.73411649  0.38543768  0.51073562     0.10400
C2512       C  0.76873652  0.47926664  0.52623101    -0.15500
C2513       C  0.78296629  0.50599688  0.52509306     0.03400
C2514       C  0.77244296  0.51913498  0.51858482    -0.10900
C2515       C  0.74755104  0.50446884  0.51351089    -0.00900
C2516       C  0.73363234  0.47773319  0.51457259    -0.06100
H2517       H  0.77700093  0.46939851  0.53111228     0.06400
H2518       H  0.73880917  0.51369997  0.50849871     0.09800
Br2519     Br  0.76929351  0.43915142  0.50423185    -0.05800
Br2520     Br  0.66719901  0.38055779  0.54128312    -0.02700
Br2521     Br  0.81671860  0.52214750  0.53237561     0.00100
Br2522     Br  0.70062265  0.45932244  0.50666946    -0.04200
C2523       C  0.40961355  0.23656960  0.52262565    -0.11600
C2524       C  0.41862682  0.24751744  0.53455388     0.03800
C2525       C  0.40699499  0.25932616  0.54089692    -0.12200
C2526       C  0.38614776  0.26026169  0.53572833     0.18700
C2527       C  0.37636092  0.24843580  0.52414232    -0.09200
C2528       C  0.38802338  0.23668371  0.51769778    -0.02200
H2529       H  0.41438478  0.26802928  0.54987774     0.05200
C2530       C  0.37584989  0.27479930  0.54235294     0.20700
H2531       H  0.38063239  0.22828677  0.50867114     0.10400
C2532       C  0.38354246  0.29984374  0.53849285    -0.15500
C2533       C  0.37586883  0.31501951  0.54501406     0.03400
C2534       C  0.36012806  0.30517225  0.55574634    -0.10900
C2535       C  0.35186049  0.27970908  0.55935425    -0.00900
C2536       C  0.35971559  0.26465558  0.55281197    -0.06100
H2537       H  0.39586813  0.30774334  0.53041549     0.06400
H2538       H  0.33970126  0.27161856  0.56746525     0.09800
Br2539     Br  0.34712562  0.24797825  0.51681516    -0.05800
Br2540     Br  0.44589355  0.24608948  0.54312201    -0.02700
Br2541     Br  0.38709395  0.34863893  0.53838690     0.00100
Br2542     Br  0.34811795  0.23036199  0.55847184    -0.04200
C2543       C  0.49071666  0.24164696  0.50984370    -0.11600
C2544       C  0.50647777  0.26717935  0.51409401     0.03800
C2545       C  0.53290064  0.27720959  0.51545013    -0.12200
C2546       C  0.54442298  0.26281414  0.51220773     0.18700
C2547       C  0.52906550  0.23773872  0.50761814    -0.09200
C2548       C  0.50247647  0.22731892  0.50653979    -0.02200
H2549       H  0.54469413  0.29664261  0.51884980     0.05200
C2550       C  0.57254282  0.27467446  0.51365199     0.20700
H2551       H  0.49100976  0.20788962  0.50311975     0.10400
C2552       C  0.58241112  0.26500604  0.52261134    -0.15500
C2553       C  0.60882507  0.27741560  0.52504352     0.03400
C2554       C  0.62571757  0.30006461  0.51851196    -0.10900
C2555       C  0.61581761  0.30940391  0.50941769    -0.00900
C2556       C  0.58953565  0.29684045  0.50689140    -0.06100
H2557       H  0.56941161  0.24815229  0.52798214     0.06400
H2558       H  0.62864170  0.32658020  0.50420342     0.09800
Br2559     Br  0.54364899  0.21743885  0.50223006    -0.05800
Br2560     Br  0.49417698  0.29051321  0.51730467    -0.02700
Br2561     Br  0.62037343  0.26380222  0.53804945     0.00100
Br2562     Br  0.57781815  0.31052336  0.49400222    -0.04200
C2563       C  0.36605267  0.08621677  0.44104460    -0.11600
C2564       C  0.34881072  0.08315077  0.45078514     0.03800
C2565       C  0.35694426  0.10101855  0.46053174    -0.12200
C2566       C  0.38215461  0.12179992  0.46094924     0.18700
C2567       C  0.39954159  0.12454210  0.45147879    -0.09200
C2568       C  0.39143486  0.10692700  0.44164021    -0.02200
H2569       H  0.34365932  0.09845722  0.46795330     0.05200
C2570       C  0.39036161  0.13987903  0.47158085     0.20700
H2571       H  0.40504545  0.10959262  0.43437340     0.10400
C2572       C  0.40574604  0.13820239  0.48087426    -0.15500
C2573       C  0.41542433  0.15603457  0.49060141     0.03400
C2574       C  0.40974541  0.17607386  0.49114740    -0.10900
C2575       C  0.39322784  0.17693804  0.48219635    -0.00900
C2576       C  0.38360626  0.15906979  0.47242687    -0.06100
H2577       H  0.41059259  0.12315309  0.48043361     0.06400
H2578       H  0.38877722  0.19226939  0.48246025     0.09800
Br2579     Br  0.43449514  0.15227606  0.45152963    -0.05800
Br2580     Br  0.31451858  0.05422750  0.45196007    -0.02700
Br2581     Br  0.43582911  0.15173540  0.50304276     0.00100
Br2582     Br  0.36263721  0.16248786  0.46002893    -0.04200
C2583       C  0.39241291  0.00711884  0.39217605    -0.11600
C2584       C  0.41750447  0.01402233  0.39624194     0.03800
C2585       C  0.43109243  0.00375683  0.39024592    -0.12200
C2586       C  0.42029832  0.98681477  0.38018720     0.18700
C2587       C  0.39553120  0.98005595  0.37609096    -0.09200
C2588       C  0.38191051  0.99015226  0.38202846    -0.02200
H2589       H  0.45011378  0.00885626  0.39350462     0.05200
C2590       C  0.43435923  0.97529818  0.37428668     0.20700
H2591       H  0.36280090  0.98445051  0.37868644     0.10400
C2592       C  0.43306554  0.95354885  0.37970324    -0.15500
C2593       C  0.44273390  0.93977492  0.37346818     0.03400
C2594       C  0.45360343  0.94753212  0.36144965    -0.10900
C2595       C  0.45638952  0.97036459  0.35644859    -0.00900
C2596       C  0.44692925  0.98422427  0.36277781    -0.06100
H2597       H  0.42388872  0.94688247  0.38868844     0.06400
H2598       H  0.46503837  0.97696353  0.34736709     0.09800
Br2599     Br  0.37919203  0.95640444  0.36260672    -0.05800
Br2600     Br  0.43423987  0.03647110  0.41009219    -0.02700
Br2601     Br  0.44133488  0.91123515  0.38212567     0.00100
Br2602     Br  0.45079533  0.01479568  0.35522776    -0.04200
C2603       C  0.29131776  0.96163548  0.43085387    -0.11600
C2604       C  0.27343570  0.93773537  0.42548964     0.03800
C2605       C  0.26096842  0.91575281  0.43302635    -0.12200
C2606       C  0.26563355  0.91717924  0.44588278     0.18700
C2607       C  0.28203411  0.94121436  0.45132218    -0.09200
C2608       C  0.29474844  0.96305082  0.44384199    -0.02200
H2609       H  0.24834571  0.89726447  0.42876475     0.05200
C2610       C  0.25604307  0.89330715  0.45324914     0.20700
H2611       H  0.30783494  0.98124374  0.44823123     0.10400
C2612       C  0.27373143  0.88606476  0.45700601    -0.15500
C2613       C  0.26610654  0.86400164  0.46413131     0.03400
C2614       C  0.23992145  0.84823625  0.46755166    -0.10900
C2615       C  0.22224507  0.85577851  0.46385263    -0.00900
C2616       C  0.23011446  0.87806838  0.45674751    -0.06100
H2617       H  0.29380625  0.89792578  0.45446422     0.06400
H2618       H  0.20214344  0.84415742  0.46636325     0.09800
Br2619     Br  0.28799925  0.94501851  0.46894807    -0.05800
Br2620     Br  0.26647799  0.93322196  0.40794997    -0.02700
Br2621     Br  0.29317870  0.85798501  0.46935058     0.00100
Br2622     Br  0.20509355  0.88741395  0.45228483    -0.04200
C2623       C  0.27269531  0.16515228  0.29678672    -0.11600
C2624       C  0.26504576  0.16773643  0.28464240     0.03800
C2625       C  0.27795224  0.19148654  0.27849322    -0.12200
C2626       C  0.29860000  0.21292050  0.28412786     0.18700
C2627       C  0.30683078  0.21019890  0.29599562    -0.09200
C2628       C  0.29404840  0.18652555  0.30216112    -0.02200
H2629       H  0.27162273  0.19334932  0.26929780     0.05200
C2630       C  0.31037780  0.23831870  0.27787350     0.20700
H2631       H  0.30045317  0.18510273  0.31141283     0.10400
C2632       C  0.30481000  0.25677301  0.28238604    -0.15500
C2633       C  0.31565340  0.28116483  0.27696226     0.03400
C2634       C  0.33293382  0.28774241  0.26677762    -0.10900
C2635       C  0.33826724  0.26897691  0.26223215    -0.00900
C2636       C  0.32698680  0.24443331  0.26760068    -0.06100
H2637       H  0.29184136  0.25210550  0.29022952     0.06400
H2638       H  0.35112716  0.27328497  0.25438165     0.09800
Br2639     Br  0.33537334  0.23843952  0.30417878    -0.05800
Br2640     Br  0.23792512  0.13958835  0.27564458    -0.02700
Br2641     Br  0.30578856  0.30409703  0.28423335     0.00100
Br2642     Br  0.33500456  0.21993238  0.26071956    -0.04200
C2643       C  0.19074251  0.08964464  0.30945121    -0.11600
C2644       C  0.17556753  0.10082899  0.31202517     0.03800
C2645       C  0.14873713  0.08571582  0.31182861    -0.12200
C2646       C  0.13655005  0.05947379  0.30891716     0.18700
C2647       C  0.15174111  0.04849139  0.30587066    -0.09200
C2648       C  0.17862523  0.06346755  0.30641032    -0.02200
H2649       H  0.13728394  0.09444046  0.31406611     0.05200
C2650       C  0.10803019  0.04426447  0.30889895     0.20700
H2651       H  0.19013082  0.05477643  0.30422085     0.10400
C2652       C  0.09443490  0.05053551  0.30035124    -0.15500
C2653       C  0.06751516  0.03754345  0.30039698     0.03400
C2654       C  0.05365363  0.01773419  0.30910530    -0.10900
C2655       C  0.06727999  0.01128594  0.31756264    -0.00900
C2656       C  0.09419470  0.02458982  0.31765183    -0.06100
H2657       H  0.10485749  0.06567974  0.29361691     0.06400
H2658       H  0.05697585  0.99646381  0.32443893     0.09800
Br2659     Br  0.13670777  0.01362557  0.30025758    -0.05800
Br2660     Br  0.19053778  0.13636840  0.31646861    -0.02700
Br2661     Br  0.05083625  0.04697034  0.28799389     0.00100
Br2662     Br  0.11102818  0.01639087  0.33049903    -0.04200
C2663       C  0.31677035  0.06631272  0.38132139    -0.11600
C2664       C  0.29117588  0.06139061  0.38066780     0.03800
C2665       C  0.28344954  0.07072784  0.37061629    -0.12200
C2666       C  0.30079990  0.08547040  0.36121113     0.18700
C2667       C  0.32662500  0.09179836  0.36221094    -0.09200
C2668       C  0.33437415  0.08213662  0.37213600    -0.02200
H2669       H  0.26368159  0.06633076  0.37008107     0.05200
C2670       C  0.29122410  0.09322325  0.35027131     0.20700
H2671       H  0.35417096  0.08659768  0.37249456     0.10400
C2672       C  0.29662182  0.11865540  0.34912650    -0.15500
C2673       C  0.28642685  0.12598859  0.33925809     0.03400
C2674       C  0.27042614  0.10765211  0.33033349    -0.10900
C2675       C  0.26529315  0.08228517  0.33145565    -0.00900
C2676       C  0.27568258  0.07506538  0.34124105    -0.06100
H2677       H  0.30831633  0.13269588  0.35609792     0.06400
H2678       H  0.25307839  0.06798313  0.32469463     0.09800
Br2679     Br  0.35170768  0.11280596  0.34998790    -0.05800
Br2680     Br  0.26585333  0.04301030  0.39330891    -0.02700
Br2681     Br  0.29314619  0.16067182  0.33909185     0.00100
Br2682     Br  0.26835867  0.04020346  0.34186599    -0.04200
loop_ 
_geom_bond_atom_site_label_1 
_geom_bond_atom_site_label_2 
_geom_bond_distance 
_geom_bond_site_symmetry_2 
_ccdc_geom_bond_type 
C1            N2   1.364       .  A
C1            N6   1.360       .  A
C1         C2623   1.491       .  S
N2            C3   1.362       .  A
C3            N4   1.359       .  A
C3         C2674   1.483       .  S
N4            C5   1.357       .  A
C5            N6   1.358       .  A
C5         C2643   1.476       .  S
O7           C10   1.264       .  A
O7          Cd12   2.478       .  S
C8         C2603   1.486       .  S
C8           O17   1.264   1_565  A
C8           O13   1.267       .  A
O9           C15   1.265       .  A
O9          Cd12   2.505       .  S
C10        C2663   1.492       .  S
C10          O18   1.266       .  A
C11        C2563   1.487       .  S
C11          O16   1.268       .  A
C11          O14   1.264       .  A
Cd12         O19   2.460       .  S
Cd12         O18   2.496       .  S
Cd12         O17   2.442       .  S
Cd12         O13   2.507   1_545  S
Cd12         O16   2.486       .  S
Cd12         O14   2.453       .  S
C15        C2583   1.492       .  S
C15          O19   1.265       .  A
C20          N21   1.358       .  A
C20          N25   1.365       .  A
C20        C2523   1.490       .  S
N21          C22   1.355       .  A
C22          N23   1.355       .  A
C22        C2543   1.487       .  S
N23          C24   1.358       .  A
C24          N25   1.364       .  A
C24        C2574   1.479       .  S
C26          N27   1.357       .  A
C26          N31   1.356       .  A
C26        C2503   1.471       .  S
N27          C28   1.358       .  A
C28          N29   1.357       .  A
C28        C2554   1.473       .  S
N29          C30   1.357       .  A
C30          N31   1.355       .  A
C30        C2494   1.463       .  S
C32          N33   1.360       .  A
C32          N37   1.363       .  A
C32        C2423   1.485       .  S
N33          C34   1.358       .  A
C34          N35   1.355       .  A
C34        C2443   1.486       .  S
N35          C36   1.357       .  A
C36          N37   1.362       .  A
C36        C2463   1.478       .  S
O38          C41   1.267       .  A
O38         Cd43   2.501       .  S
C39        C2363   1.490       .  S
C39          O48   1.266       .  A
C39          O44   1.265       .  A
O40          C46   1.266       .  A
O40         Cd43   2.491       .  S
C41        C2383   1.482       .  S
C41          O49   1.263       .  A
C42        C2414   1.491       .  S
C42          O47   1.266       .  A
C42          O45   1.266       .  A
Cd43         O50   2.471       .  S
Cd43         O49   2.448       .  S
Cd43         O48   2.478       .  S
Cd43         O44   2.487       .  S
Cd43         O47   2.489       .  S
Cd43         O45   2.483       .  S
C46        C2474   1.495       .  S
C46          O50   1.266       .  A
C51          N52   1.356       .  A
C51          N56   1.359       .  A
C51        C2343   1.475       .  S
N52          C53   1.355       .  A
C53          N54   1.359       .  A
C53        C2514   1.494       .  S
N54          C55   1.359       .  A
C55          N56   1.361       .  A
C55        C2374   1.484       .  S
C57          N58   1.362       .  A
C57          N62   1.356       .  A
C57        C2283   1.478       .  S
N58          C59   1.363       .  A
C59          N60   1.360       .  A
C59        C2334   1.481       .  S
N60          C61   1.357       .  A
C61          N62   1.356       .  A
C61        C2314   1.495       .  S
O63          C66   1.267       .  A
O63         Cd68   2.467       .  S
C64        C2243   1.492       .  S
C64          O73   1.265       .  A
C64          O69   1.266   1_455  A
O65          C71   1.266       .  A
O65         Cd68   2.506   1_455  S
C66        C2223   1.476       .  S
C66          O74   1.265       .  A
C67        C2323   1.494       .  S
C67          O72   1.267       .  A
C67          O70   1.266       .  A
Cd68         O75   2.462   1_655  S
Cd68         O74   2.451       .  S
Cd68         O73   2.453   1_655  S
Cd68         O69   2.506       .  S
Cd68         O72   2.483       .  S
Cd68         O70   2.470       .  S
C71        C2263   1.490       .  S
C71          O75   1.264       .  A
C76          N77   1.364       .  A
C76          N81   1.356       .  A
C76        C2203   1.477       .  S
N77          C78   1.365       .  A
C78          N79   1.354       .  A
C78        C2234   1.488       .  S
N79          C80   1.352       .  A
C80          N81   1.351       .  A
C80        C2483   1.475       .  S
C82          N83   1.358   1_545  A
C82          N87   1.358       .  A
C82        C2654   1.481       .  S
N83          C84   1.359   1_455  A
C84          N85   1.358       .  A
C84        C2454   1.480       .  S
N85          C86   1.359   1_565  A
C86          N87   1.361   1_655  A
C86        C2303   1.494       .  S
C88          N89   1.365       .  A
C88          N93   1.359       .  A
C88        C2403   1.489       .  S
N89          C90   1.363       .  A
C90          N91   1.356       .  A
C90        C2183   1.473       .  S
N91          C92   1.355       .  A
C92          N93   1.356       .  A
C92        C2174   1.480       .  S
O94          C97   1.267       .  A
O94         Cd99   2.483       .  S
C95        C2194   1.491       .  S
C95         O104   1.263       .  A
C95         O100   1.268       .  A
O96         C102   1.268       .  A
O96         Cd99   2.491   1_545  S
C97        C2143   1.480   1_565  S
C97         O105   1.265   1_565  A
C98        C2123   1.492       .  S
C98         O103   1.269       .  A
C98         O101   1.264       .  A
Cd99        O106   2.442   1_565  S
Cd99        O105   2.455   1_565  S
Cd99        O104   2.457       .  S
Cd99        O100   2.487       .  S
Cd99        O103   2.480       .  S
Cd99        O101   2.460       .  S
C102       C2214   1.486       .  S
C102        O106   1.262       .  A
C107        N108   1.364       .  A
C107        N112   1.359       .  A
C107       C2083   1.487       .  S
N108        C109   1.363       .  A
C109        N110   1.358       .  A
C109       C2134   1.478       .  S
N110        C111   1.356       .  A
C111        N112   1.356       .  A
C111       C2114   1.481       .  S
C113        N114   1.360       .  A
C113        N118   1.367       .  A
C113       C2274   1.498       .  S
N114        C115   1.357       .  A
C115        N116   1.354       .  A
C115       C2043   1.481       .  S
N116        C117   1.356       .  A
C117        N118   1.364       .  A
C117       C2063   1.481       .  S
O119        C122   1.269       .  A
O119       Cd124   2.498       .  S
C120       C2074   1.494       .  S
C120        O129   1.263       .  A
C120        O125   1.268       .  A
O121        C127   1.268       .  A
O121       Cd124   2.509       .  S
C122       C2023   1.483       .  S
C122        O130   1.263       .  A
C123       C2003   1.485       .  S
C123        O128   1.269       .  A
C123        O126   1.264       .  A
Cd124       O131   2.466       .  S
Cd124       O130   2.441       .  S
Cd124       O129   2.457       .  S
Cd124       O125   2.502       .  S
Cd124       O128   2.482       .  S
Cd124       O126   2.457       .  S
C127       C2534   1.492       .  S
C127        O131   1.264       .  A
C132        N133   1.360       .  A
C132        N137   1.364       .  A
C132       C1963   1.500       .  S
N133        C134   1.354       .  A
C134        N135   1.354       .  A
C134       C1983   1.471       .  S
N135        C136   1.358       .  A
C136        N137   1.364       .  A
C136       C2014   1.480       .  S
C138        N139   1.365       .  A
C138        N143   1.358       .  A
C138       C2614   1.490       .  S
N139        C140   1.363       .  A
C140        N141   1.357       .  A
C140       C1954   1.477       .  S
N141        C142   1.353       .  A
C142        N143   1.356       .  A
C142       C1934   1.486       .  S
O144        C147   1.267       .  A
O144       Cd149   2.495       .  S
C145       C1914   1.493       .  S
C145        O154   1.266       .  A
C145        O150   1.267       .  A
O146        C152   1.268       .  A
O146       Cd149   2.489       .  S
C147       C1943   1.491       .  S
C147        O155   1.264       .  A
C148       C2354   1.478       .  S
C148        O153   1.268   1_655  A
C148        O151   1.263   1_655  A
Cd149       O156   2.445       .  S
Cd149       O155   2.449       .  S
Cd149       O154   2.458       .  S
Cd149       O150   2.487       .  S
Cd149       O153   2.497       .  S
Cd149       O151   2.438       .  S
C152       C1883   1.485       .  S
C152        O156   1.264       .  A
C157        N158   1.364       .  A
C157        N162   1.358       .  A
C157       C1843   1.488       .  S
N158        C159   1.366       .  A
C159        N160   1.358       .  A
C159       C1894   1.487       .  S
N160        C161   1.354       .  A
C161        N162   1.353       .  A
C161       C1863   1.473       .  S
C163        N164   1.357       .  A
C163        N168   1.358   1_545  A
C163       C2103   1.468   1_445  S
N164        C165   1.357       .  A
C165        N166   1.355       .  A
C165       C1994   1.470       .  S
N166        C167   1.357   1_545  A
C167        N168   1.360       .  A
C167       C1874   1.485       .  S
C169        N170   1.354       .  A
C169        N174   1.357       .  A
C169       C1923   1.477       .  S
N170        C171   1.356       .  A
C171        N172   1.362       .  A
C171       C2054   1.493       .  S
N172        C173   1.363       .  A
C173        N174   1.357       .  A
C173       C2163   1.493       .  S
C175        N176   1.366       .  A
C175        N180   1.363       .  A
C175       C1903   1.503       .  S
N176        C177   1.364       .  A
C177        N178   1.353       .  A
C177       C1823   1.478       .  S
N178        C179   1.352       .  A
C179        N180   1.356       .  A
C179       C1803   1.475       .  S
O181        C184   1.267       .  A
O181       Cd186   2.504       .  S
C182       C1974   1.486       .  S
C182        O191   1.262       .  A
C182        O187   1.268       .  A
O183        C189   1.266       .  A
O183       Cd186   2.505   1_655  S
C184       C1763   1.492       .  S
C184        O192   1.266       .  A
C185       C1834   1.492       .  S
C185        O190   1.267       .  A
C185        O188   1.264   1_655  A
Cd186       O193   2.471   1_455  S
Cd186       O192   2.477       .  S
Cd186       O191   2.444       .  S
Cd186       O187   2.510       .  S
Cd186       O190   2.505   1_455  S
Cd186       O188   2.456       .  S
C189       C1783   1.484       .  S
C189        O193   1.264       .  A
C194        N195   1.358       .  A
C194        N199   1.369       .  A
C194       C1723   1.504       .  S
N195        C196   1.352       .  A
C196        N197   1.354       .  A
C196       C1743   1.486       .  S
N197        C198   1.359       .  A
C198        N199   1.370       .  A
C198       C1774   1.495       .  S
C200        N201   1.364       .  A
C200        N205   1.362       .  A
C200       C1663   1.483       .  S
N201        C202   1.363       .  A
C202        N203   1.353       .  A
C202       C1683   1.495       .  S
N203        C204   1.354       .  A
C204        N205   1.360       .  A
C204       C1703   1.479       .  S
O206        C209   1.268       .  A
O206       Cd211   2.487   1_565  S
C207       C1854   1.492       .  S
C207        O216   1.263       .  A
C207        O212   1.269       .  A
O208        C214   1.267       .  A
O208       Cd211   2.480       .  S
C209       C1714   1.481       .  S
C209        O217   1.263   1_565  A
C210       C1623   1.481       .  S
C210        O215   1.267       .  A
C210        O213   1.263   1_545  A
Cd211       O218   2.440       .  S
Cd211       O217   2.442       .  S
Cd211       O216   2.443   1_545  S
Cd211       O212   2.500   1_545  S
Cd211       O215   2.493       .  S
Cd211       O213   2.451   1_545  S
C214       C1654   1.488       .  S
C214        O218   1.266       .  A
C219        N220   1.366       .  A
C219        N224   1.357       .  A
C219       C2154   1.486       .  S
N220        C221   1.365       .  A
C221        N222   1.354       .  A
C221       C1634   1.485       .  S
N222        C223   1.352       .  A
C223        N224   1.353       .  A
C223       C1614   1.476       .  S
C225        N226   1.363       .  A
C225        N230   1.360       .  A
C225       C1543   1.483       .  S
N226        C227   1.362       .  A
C227        N228   1.357       .  A
C227       C1594   1.480       .  S
N228        C229   1.357       .  A
C229        N230   1.357       .  A
C229       C1563   1.489       .  S
O231        C234   1.270       .  A
O231       Cd236   2.494       .  S
C232       C2094   1.488       .  S
C232        O241   1.264       .  A
C232        O237   1.268       .  A
O233        C239   1.270       .  A
O233       Cd236   2.524       .  S
C234       C1583   1.489       .  S
C234        O242   1.265       .  A
C235       C1503   1.486       .  S
C235        O240   1.270       .  A
C235        O238   1.264       .  A
Cd236       O243   2.446       .  S
Cd236       O242   2.453       .  S
Cd236       O241   2.465       .  S
Cd236       O237   2.503       .  S
Cd236       O240   2.496       .  S
Cd236       O238   2.455       .  S
C239       C1523   1.492       .  S
C239        O243   1.263       .  A
C244        N245   1.368       .  A
C244        N249   1.355       .  A
C244       C2034   1.494       .  S
N245        C246   1.367       .  A
C246        N247   1.358       .  A
C246       C1514   1.486       .  S
N247        C248   1.351       .  A
C248        N249   1.350       .  A
C248       C1483   1.470       .  S
C250        N251   1.358       .  A
C250        N255   1.358       .  A
C250       C1814   1.483       .  S
N251        C252   1.358       .  A
C252        N253   1.356       .  A
C252       C1603   1.477       .  S
N253        C254   1.356       .  A
C254        N255   1.358       .  A
C254       C1494   1.479       .  S
C256        N257   1.362       .  A
C256        N261   1.359       .  A
C256       C1694   1.490       .  S
N257        C258   1.362       .  A
C258        N259   1.355       .  A
C258       C1754   1.485       .  S
N259        C260   1.354       .  A
C260        N261   1.357       .  A
C260       C1574   1.479       .  S
C262        N263   1.363       .  A
C262        N267   1.364       .  A
C262       C1434   1.501       .  S
N263        C264   1.358       .  A
C264        N265   1.355       .  A
C264       C1443   1.485       .  S
N265        C266   1.356       .  A
C266        N267   1.362       .  A
C266       C1474   1.481   1_554  S
O268        C271   1.269       .  A
O268       Cd273   2.515       .  S
C269       C1383   1.485       .  S
C269        O278   1.266       .  A
C269        O274   1.270       .  A
O270        C276   1.271       .  A
O270       Cd273   2.514       .  S
C271       C1414   1.497       .  S
C271        O279   1.263       .  A
C272       C1463   1.490       .  S
C272        O277   1.269       .  A
C272        O275   1.264       .  A
Cd273       O280   2.447       .  S
Cd273       O279   2.460       .  S
Cd273       O278   2.444       .  S
Cd273       O274   2.489       .  S
Cd273       O277   2.513       .  S
Cd273       O275   2.472       .  S
C276       C1554   1.492       .  S
C276        O280   1.263       .  A
C281        N282   1.364       .  A
C281        N286   1.356       .  A
C281       C1643   1.479       .  S
N282        C283   1.364       .  A
C283        N284   1.358       .  A
C283       C1394   1.473       .  S
N284        C285   1.354       .  A
C285        N286   1.354       .  A
C285       C1363   1.479       .  S
C287        N288   1.359       .  A
C287        N292   1.363       .  A
C287       C1314   1.483       .  S
N288        C289   1.357       .  A
C289        N290   1.356   1_554  A
C289       C1334   1.487       .  S
N290        C291   1.359       .  A
C291        N292   1.363   1_556  A
C291       C1343   1.482       .  S
O293        C296   1.267       .  A
O293       Cd298   2.488       .  S
C294       C1674   1.486       .  S
C294        O303   1.264   1_545  A
C294        O299   1.268       .  A
O295        C301   1.268       .  A
O295       Cd298   2.492       .  S
C296       C1354   1.486       .  S
C296        O304   1.264       .  A
C297       C1294   1.489       .  S
C297        O302   1.267       .  A
C297        O300   1.265   1_565  A
Cd298       O305   2.466       .  S
Cd298       O304   2.456       .  S
Cd298       O303   2.451   1_545  S
Cd298       O299   2.504       .  S
Cd298       O302   2.484   1_545  S
Cd298       O300   2.445       .  S
C301       C1274   1.487       .  S
C301        O305   1.264       .  A
C306        N307   1.365       .  A
C306        N311   1.358       .  A
C306       C1794   1.496       .  S
N307        C308   1.366       .  A
C308        N309   1.360       .  A
C308       C1263   1.492       .  S
N309        C310   1.355       .  A
C310        N311   1.354       .  A
C310       C1254   1.479       .  S
C312        N313   1.358       .  A
C312        N317   1.356       .  A
C312       C1243   1.481   1_455  S
N313        C314   1.359       .  A
C314        N315   1.361       .  A
C314       C1374   1.489       .  S
N315        C316   1.358   1_545  A
C316        N317   1.356   1_565  A
C316       C1234   1.485       .  S
C318        N319   1.364       .  A
C318        N323   1.359       .  A
C318       C1163   1.498       .  S
N319        C320   1.364       .  A
C320        N321   1.359       .  A
C320       C1214   1.488   1_554  S
N321        C322   1.354       .  A
C322        N323   1.356       .  A
C322       C1194   1.493       .  S
O324        C327   1.269   1_655  A
O324       Cd329   2.523   1_655  S
C325       C1203   1.491       .  S
C325        O334   1.265       .  A
C325        O330   1.269       .  A
O326        C332   1.267       .  A
O326       Cd329   2.502       .  S
C327       C1734   1.495       .  S
C327        O335   1.265       .  A
C328       C1123   1.496       .  S
C328        O333   1.269   1_655  A
C328        O331   1.265       .  A
Cd329       O336   2.455       .  S
Cd329       O335   2.462       .  S
Cd329       O334   2.463   1_455  S
Cd329       O330   2.505   1_455  S
Cd329       O333   2.493       .  S
Cd329       O331   2.466   1_455  S
C332       C1143   1.493       .  S
C332        O336   1.265       .  A
C337        N338   1.365       .  A
C337        N342   1.361       .  A
C337       C1534   1.505       .  S
N338        C339   1.361       .  A
C339        N340   1.360       .  A
C339       C1223   1.499       .  S
N340        C341   1.358       .  A
C341        N342   1.360       .  A
C341       C1134   1.482       .  S
C343        N344   1.361       .  A
C343        N348   1.359       .  A
C343       C1454   1.483       .  S
N344        C345   1.359       .  A
C345        N346   1.357       .  A
C345       C1323   1.487       .  S
N346        C347   1.356       .  A
C347        N348   1.358       .  A
C347       C1183   1.475       .  S
C349        N350   1.364       .  A
C349        N354   1.365       .  A
C349       C1074   1.494       .  S
N350        C351   1.361       .  A
C351        N352   1.354       .  A
C351       C1094   1.488       .  S
N352        C353   1.355       .  A
C353        N354   1.364       .  A
C353       C1114   1.492       .  S
O355        C358   1.269       .  A
O355       Cd360   2.481       .  S
C356       C1043   1.486       .  S
C356        O365   1.267       .  A
C356        O361   1.264       .  A
O357        C363   1.268       .  A
O357       Cd360   2.489   1_545  S
C358       C1034   1.479       .  S
C358        O366   1.264   1_565  A
C359       C2294   1.490       .  S
C359        O364   1.269       .  A
C359        O362   1.261       .  A
Cd360       O367   2.470   1_565  S
Cd360       O366   2.443   1_565  S
Cd360       O365   2.504       .  S
Cd360       O361   2.463       .  S
Cd360       O364   2.498   1_565  S
Cd360       O362   2.439   1_565  S
C363       C1103   1.481       .  S
C363        O367   1.264       .  A
C368        N369   1.363       .  A
C368        N373   1.362       .  A
C368       C2594   1.486       .  S
N369        C370   1.360       .  A
C370        N371   1.355       .  A
C370       C1023   1.480       .  S
N371        C372   1.353       .  A
C372        N373   1.359       .  A
C372       C1003   1.485       .  S
C374        N375   1.359       .  A
C374        N379   1.360       .  A
C374        C983   1.483       .  S
N375        C376   1.358       .  A
C376        N377   1.358       .  A
C376        C963   1.484       .  S
N377        C378   1.359       .  A
C378        N379   1.360       .  A
C378       C1083   1.485       .  S
C380        N381   1.364       .  A
C380        N385   1.362       .  A
C380        C923   1.501       .  S
N381        C382   1.363       .  A
C382        N383   1.356       .  A
C382        C943   1.480       .  S
N383        C384   1.354       .  A
C384        N385   1.357       .  A
C384        C994   1.486       .  S
O386        C389   1.266       .  A
O386       Cd391   2.485       .  S
C387        C883   1.489       .  S
C387        O396   1.265       .  A
C387        O392   1.268       .  A
O388        C394   1.269       .  A
O388       Cd391   2.515       .  S
C389        C903   1.484       .  S
C389        O397   1.265       .  A
C390        C954   1.494       .  S
C390        O395   1.268       .  A
C390        O393   1.266       .  A
Cd391       O398   2.446       .  S
Cd391       O397   2.462       .  S
Cd391       O396   2.466       .  S
Cd391       O392   2.487       .  S
Cd391       O395   2.497       .  S
Cd391       O393   2.465       .  S
C394       C2634   1.494       .  S
C394        O398   1.261       .  A
C399        N400   1.361       .  A
C399        N404   1.361       .  A
C399       C2394   1.492       .  S
N400        C401   1.358       .  A
C401        N402   1.355       .  A
C401        C863   1.491       .  S
N402        C403   1.357       .  A
C403        N404   1.361       .  A
C403        C894   1.483       .  S
C405        N406   1.361       .  A
C405        N410   1.363       .  A
C405        C834   1.487       .  S
N406        C407   1.357       .  A
C407        N408   1.357       .  A
C407        C974   1.488       .  S
N408        C409   1.357       .  A
C409        N410   1.362       .  A
C409        C843   1.479       .  S
O411        C414   1.268       .  A
O411       Cd416   2.487       .  S
C412        C783   1.483       .  S
C412        O421   1.266       .  A
C412        O417   1.269       .  A
O413        C419   1.268       .  A
O413       Cd416   2.485   1_655  S
C414        C803   1.482       .  S
C414        O422   1.263       .  A
C415        C854   1.487   1_455  S
C415        O420   1.269   1_455  A
C415        O418   1.264       .  A
Cd416       O423   2.452       .  S
Cd416       O422   2.447       .  S
Cd416       O421   2.431       .  S
Cd416       O417   2.477       .  S
Cd416       O420   2.482   1_455  S
Cd416       O418   2.441       .  S
C419       C2434   1.479       .  S
C419        O423   1.263   1_655  A
C424        N425   1.362       .  A
C424        N429   1.364       .  A
C424       C2254   1.490       .  S
N425        C426   1.360       .  A
C426        N427   1.352       .  A
C426        C763   1.495       .  S
N427        C428   1.355       .  A
C428        N429   1.361       .  A
C428        C794   1.480       .  S
C430        N431   1.359       .  A
C430        N435   1.356       .  A
C430        C874   1.475       .  S
N431        C432   1.360       .  A
C432        N433   1.359       .  A
C432        C774   1.487       .  S
N433        C434   1.358       .  A
C434        N435   1.355       .  A
C434       C1014   1.483       .  S
C436        N437   1.360       .  A
C436        N441   1.365       .  A
C436       C1403   1.485       .  S
N437        C438   1.356       .  A
C438        N439   1.355       .  A
C438        C734   1.472       .  S
N439        C440   1.357       .  A
C440        N441   1.364       .  A
C440        C754   1.482   1_556  S
O442        C445   1.267       .  A
O442       Cd447   2.496       .  S
C443        C823   1.495       .  S
C443        O452   1.263       .  A
C443        O448   1.269       .  A
O444        C450   1.266   1_455  A
O444       Cd447   2.488       .  S
C445        C743   1.491       .  S
C445        O453   1.265       .  A
C446        C703   1.489       .  S
C446        O451   1.267       .  A
C446        O449   1.265       .  A
Cd447       O454   2.465       .  S
Cd447       O453   2.468       .  S
Cd447       O452   2.451       .  S
Cd447       O448   2.510       .  S
Cd447       O451   2.485       .  S
Cd447       O449   2.468       .  S
C450       C1303   1.493       .  S
C450        O454   1.266   1_655  A
C455        N456   1.356       .  A
C455        N460   1.362       .  A
C455        C914   1.493       .  S
N456        C457   1.353       .  A
C457        N458   1.359       .  A
C457        C683   1.487       .  S
N458        C459   1.363       .  A
C459        N460   1.365       .  A
C459        C714   1.490       .  S
C461        N462   1.363       .  A
C461        N466   1.359       .  A
C461       C1283   1.482       .  S
N462        C463   1.362   1_556  A
C463        N464   1.356       .  A
C463        C674   1.470       .  S
N464        C465   1.354   1_554  A
C465        N466   1.355       .  A
C465        C654   1.476       .  S
O467        C470   1.266       .  A
O467       Cd472   2.482       .  S
C468        C934   1.484       .  S
C468        O477   1.264       .  A
C468        O473   1.269       .  A
O469        C475   1.268       .  A
O469       Cd472   2.500       .  S
C470        C663   1.487       .  S
C470        O478   1.265       .  A
C471        C623   1.482       .  S
C471        O476   1.268       .  A
C471        O474   1.265       .  A
Cd472       O479   2.446       .  S
Cd472       O478   2.458       .  S
Cd472       O477   2.439       .  S
Cd472       O473   2.496       .  S
Cd472       O476   2.490       .  S
Cd472       O474   2.455       .  S
C475       C1174   1.488       .  S
C475        O479   1.262       .  A
C480        N481   1.362       .  A
C480        N485   1.360       .  A
C480       C1054   1.490       .  S
N481        C482   1.363       .  A
C482        N483   1.360       .  A
C482        C634   1.488       .  S
N483        C484   1.360       .  A
C484        N485   1.357       .  A
C484        C603   1.500       .  S
C486        N487   1.357       .  A
C486        N491   1.364       .  A
C486        C814   1.488       .  S
N487        C488   1.353       .  A
C488        N489   1.354       .  A
C488        C563   1.467       .  S
N489        C490   1.357       .  A
C490        N491   1.363       .  A
C490        C594   1.479       .  S
O492        C495   1.266       .  A
O492       Cd497   2.488   1_545  S
C493        C583   1.491       .  S
C493        O502   1.266       .  A
C493        O498   1.265       .  A
O494        C500   1.269       .  A
O494       Cd497   2.505       .  S
C495       C1423   1.479       .  S
C495        O503   1.265       .  A
C496       C1063   1.495       .  S
C496        O501   1.268   1_545  A
C496        O499   1.262       .  A
Cd497       O504   2.482       .  S
Cd497       O503   2.457   1_565  S
Cd497       O502   2.465       .  S
Cd497       O498   2.484       .  S
Cd497       O501   2.530       .  S
Cd497       O499   2.465   1_565  S
C500        C554   1.495       .  S
C500        O504   1.265       .  A
C505        N506   1.365       .  A
C505        N510   1.360       .  A
C505       C1154   1.487       .  S
N506        C507   1.364   1_556  A
C507        N508   1.357       .  A
C507        C543   1.488       .  S
N508        C509   1.357   1_554  A
C509        N510   1.355       .  A
C509        C534   1.496       .  S
C511        N512   1.356       .  A
C511        N516   1.354       .  A
C511        C523   1.475       .  S
N512        C513   1.360       .  A
C513        N514   1.361       .  A
C513        C643   1.487       .  S
N514        C515   1.360       .  A
C515        N516   1.357       .  A
C515        C723   1.484       .  S
C517        N518   1.358       .  A
C517        N522   1.360       .  A
C517        C694   1.478       .  S
N518        C519   1.358       .  A
C519        N520   1.358   1_545  A
C519        C574   1.474   1_545  S
N520        C521   1.357   1_465  A
C521        N522   1.359   1_655  A
C521        C614   1.478   1_545  S
C523        C524   1.411       .  A
C523        C528   1.406       .  A
C524        C525   1.398       .  A
C524       Br540   1.919       .  S
C525        C526   1.401       .  A
C525        H529   1.083       .  S
C526        C530   1.474       .  S
C526        C527   1.405       .  A
C527        C528   1.398       .  A
C527       Br539   1.918   1_556  S
C528        H531   1.083   1_556  S
C530        C532   1.398       .  A
C530        C536   1.401   1_556  A
C532        C533   1.401       .  A
C532        H537   1.084       .  S
C533        C534   1.423       .  A
C533       Br541   1.922       .  S
C534        C535   1.412   1_556  A
C535        C536   1.396       .  A
C535        H538   1.082       .  S
C536       Br542   1.919       .  S
C543        C544   1.415       .  A
C543        C548   1.406       .  A
C544        C545   1.400       .  A
C544       Br560   1.922       .  S
C545        C546   1.402       .  A
C545        H549   1.084       .  S
C546        C550   1.492       .  S
C546        C547   1.412       .  A
C547        C548   1.406       .  A
C547       Br559   1.918       .  S
C548        H551   1.084       .  S
C550        C552   1.403       .  A
C550        C556   1.411       .  A
C552        C553   1.404       .  A
C552        H557   1.084       .  S
C553        C554   1.419       .  A
C553       Br561   1.921       .  S
C554        C555   1.407       .  A
C555        C556   1.403       .  A
C555        H558   1.084       .  S
C556       Br562   1.920       .  S
C563        C564   1.407       .  A
C563        C568   1.401       .  A
C564        C565   1.398       .  A
C564       Br580   1.919       .  S
C565        C566   1.402       .  A
C565        H569   1.083       .  S
C566        C570   1.475       .  S
C566        C567   1.409       .  A
C567        C568   1.397       .  A
C567       Br579   1.920       .  S
C568        H571   1.083       .  S
C570        C572   1.401       .  A
C570        C576   1.407       .  A
C572        C573   1.397       .  A
C572        H577   1.085       .  S
C573        C574   1.412       .  A
C573       Br581   1.920   1_565  S
C574        C575   1.405       .  A
C575        C576   1.398       .  A
C575        H578   1.084       .  S
C576       Br582   1.919       .  S
C583        C584   1.418       .  A
C583        C588   1.408       .  A
C584        C585   1.403       .  A
C584       Br600   1.921       .  S
C585        C586   1.404       .  A
C585        H589   1.084       .  S
C586        C590   1.486       .  S
C586        C587   1.407       .  A
C587        C588   1.398       .  A
C587       Br599   1.920       .  S
C588        H591   1.083       .  S
C590        C592   1.405       .  A
C590        C596   1.410       .  A
C592        C593   1.400       .  A
C592        H597   1.084       .  S
C593        C594   1.411       .  A
C593       Br601   1.919       .  S
C594        C595   1.405       .  A
C595        C596   1.400       .  A
C595        H598   1.085       .  S
C596       Br602   1.920       .  S
C603        C604   1.424       .  A
C603        C608   1.412       .  A
C604        C605   1.401       .  A
C604       Br620   1.922       .  S
C605        C606   1.398       .  A
C605        H609   1.083       .  S
C606        C610   1.478       .  S
C606        C607   1.403       .  A
C607        C608   1.399       .  A
C607       Br619   1.918       .  S
C608        H611   1.082       .  S
C610        C612   1.402       .  A
C610        C616   1.407       .  A
C612        C613   1.403       .  A
C612        H617   1.083       .  S
C613        C614   1.413       .  A
C613       Br621   1.920       .  S
C614        C615   1.404       .  A
C615        C616   1.398       .  A
C615        H618   1.083   1_565  S
C616       Br622   1.919       .  S
C623        C624   1.413       .  A
C623        C628   1.406       .  A
C624        C625   1.404       .  A
C624       Br640   1.919       .  S
C625        C626   1.404       .  A
C625        H629   1.084       .  S
C626        C630   1.481       .  S
C626        C627   1.405       .  A
C627        C628   1.399       .  A
C627       Br639   1.918       .  S
C628        H631   1.084       .  S
C630        C632   1.402       .  A
C630        C636   1.406       .  A
C632        C633   1.402       .  A
C632        H637   1.084       .  S
C633        C634   1.415       .  A
C633       Br641   1.920       .  S
C634        C635   1.408       .  A
C635        C636   1.401       .  A
C635        H638   1.084       .  S
C636       Br642   1.918       .  S
C643        C644   1.417       .  A
C643        C648   1.408       .  A
C644        C645   1.400       .  A
C644       Br660   1.921   1_556  S
C645        C646   1.401       .  A
C645        H649   1.084   1_556  S
C646        C650   1.477       .  S
C646        C647   1.405       .  A
C647        C648   1.396       .  A
C647       Br659   1.920       .  S
C648        H651   1.082       .  S
C650        C652   1.401       .  A
C650        C656   1.408   1_556  A
C652        C653   1.396       .  A
C652        H657   1.085       .  S
C653        C654   1.412       .  A
C653       Br661   1.919       .  S
C654        C655   1.405   1_556  A
C655        C656   1.398       .  A
C655        H658   1.086       .  S
C656       Br662   1.919       .  S
C663        C664   1.416       .  A
C663        C668   1.408       .  A
C664        C665   1.402       .  A
C664       Br680   1.921       .  S
C665        C666   1.402       .  A
C665        H669   1.083       .  S
C666        C670   1.477       .  S
C666        C667   1.403       .  A
C667        C668   1.398       .  A
C667       Br679   1.918       .  S
C668        H671   1.082       .  S
C670        C672   1.401       .  A
C670        C676   1.408       .  A
C672        C673   1.397       .  A
C672        H677   1.083       .  S
C673        C674   1.407       .  A
C673       Br681   1.919       .  S
C674        C675   1.404       .  A
C675        C676   1.402       .  A
C675        H678   1.082   1_554  S
C676       Br682   1.917       .  S
C683        C684   1.418       .  A
C683        C688   1.408       .  A
C684        C685   1.397       .  A
C684       Br700   1.923       .  S
C685        C686   1.400       .  A
C685        H689   1.083       .  S
C686        C690   1.481       .  S
C686        C687   1.408       .  A
C687        C688   1.402       .  A
C687       Br699   1.919       .  S
C688        H691   1.082       .  S
C690        C692   1.403       .  A
C690        C696   1.409       .  A
C692        C693   1.399       .  A
C692        H697   1.084       .  S
C693        C694   1.411       .  A
C693       Br701   1.920       .  S
C694        C695   1.405       .  A
C695        C696   1.400       .  A
C695        H698   1.084       .  S
C696       Br702   1.919       .  S
C703        C704   1.415       .  A
C703        C708   1.408       .  A
C704        C705   1.402       .  A
C704       Br720   1.920       .  S
C705        C706   1.404       .  A
C705        H709   1.083       .  S
C706        C710   1.488       .  S
C706        C707   1.408       .  A
C707        C708   1.401       .  A
C707       Br719   1.919       .  S
C708        H711   1.083       .  S
C710        C712   1.404       .  A
C710        C716   1.408       .  A
C712        C713   1.404       .  A
C712        H717   1.082       .  S
C713        C714   1.416       .  A
C713       Br721   1.920       .  S
C714        C715   1.407       .  A
C715        C716   1.400       .  A
C715        H718   1.082       .  S
C716       Br722   1.920       .  S
C723        C724   1.415       .  A
C723        C728   1.407       .  A
C724        C725   1.402       .  A
C724       Br740   1.920       .  S
C725        C726   1.401       .  A
C725        H729   1.083       .  S
C726        C730   1.474       .  S
C726        C727   1.404       .  A
C727        C728   1.394       .  A
C727       Br739   1.919       .  S
C728        H731   1.083       .  S
C730        C732   1.401       .  A
C730        C736   1.407       .  A
C732        C733   1.396       .  A
C732        H737   1.083   1_556  S
C733        C734   1.409       .  A
C733       Br741   1.920   1_556  S
C734        C735   1.404       .  A
C735        C736   1.401       .  A
C735        H738   1.083       .  S
C736       Br742   1.917       .  S
C743        C744   1.416       .  A
C743        C748   1.409       .  A
C744        C745   1.403       .  A
C744       Br760   1.920       .  S
C745        C746   1.403       .  A
C745        H749   1.084       .  S
C746        C750   1.486       .  S
C746        C747   1.407       .  A
C747        C748   1.401       .  A
C747       Br759   1.919       .  S
C748        H751   1.084       .  S
C750        C752   1.406       .  A
C750        C756   1.408       .  A
C752        C753   1.404       .  A
C752        H757   1.084       .  S
C753        C754   1.411       .  A
C753       Br761   1.918       .  S
C754        C755   1.405       .  A
C755        C756   1.398       .  A
C755        H758   1.084       .  S
C756       Br762   1.920       .  S
C763        C764   1.424       .  A
C763        C768   1.411       .  A
C764        C765   1.398       .  A
C764       Br780   1.924       .  S
C765        C766   1.396       .  A
C765        H769   1.084       .  S
C766        C770   1.476       .  S
C766        C767   1.403       .  A
C767        C768   1.400       .  A
C767       Br779   1.917       .  S
C768        H771   1.082       .  S
C770        C772   1.399       .  A
C770        C776   1.405       .  A
C772        C773   1.399       .  A
C772        H777   1.083       .  S
C773        C774   1.417       .  A
C773       Br781   1.922       .  S
C774        C775   1.408       .  A
C775        C776   1.400       .  A
C775        H778   1.083       .  S
C776       Br782   1.919       .  S
C783        C784   1.415       .  A
C783        C788   1.408       .  A
C784        C785   1.401       .  A
C784       Br800   1.921       .  S
C785        C786   1.403       .  A
C785        H789   1.084       .  S
C786        C790   1.477       .  S
C786        C787   1.404       .  A
C787        C788   1.397       .  A
C787       Br799   1.918       .  S
C788        H791   1.084       .  S
C790        C792   1.404       .  A
C790        C796   1.404       .  A
C792        C793   1.403       .  A
C792        H797   1.084       .  S
C793        C794   1.411       .  A
C793       Br801   1.918       .  S
C794        C795   1.406       .  A
C795        C796   1.396       .  A
C795        H798   1.083       .  S
C796       Br802   1.919       .  S
C803        C804   1.415       .  A
C803        C808   1.405       .  A
C804        C805   1.399       .  A
C804       Br820   1.921       .  S
C805        C806   1.402       .  A
C805        H809   1.082       .  S
C806        C810   1.483       .  S
C806        C807   1.410       .  A
C807        C808   1.400       .  A
C807       Br819   1.919       .  S
C808        H811   1.082       .  S
C810        C812   1.400       .  A
C810        C816   1.409       .  A
C812        C813   1.397       .  A
C812        H817   1.085       .  S
C813        C814   1.419       .  A
C813       Br821   1.923       .  S
C814        C815   1.407       .  A
C815        C816   1.402       .  A
C815        H818   1.084       .  S
C816       Br822   1.919       .  S
C823        C824   1.421   1_455  A
C823        C828   1.410       .  A
C824        C825   1.400       .  A
C824       Br840   1.923       .  S
C825        C826   1.399       .  A
C825        H829   1.083       .  S
C826        C830   1.482       .  S
C826        C827   1.405   1_655  A
C827        C828   1.404       .  A
C827       Br839   1.917       .  S
C828        H831   1.082       .  S
C830        C832   1.403       .  A
C830        C836   1.405       .  A
C832        C833   1.404       .  A
C832        H837   1.083   1_655  S
C833        C834   1.415       .  A
C833       Br841   1.920       .  S
C834        C835   1.407       .  A
C835        C836   1.399       .  A
C835        H838   1.082       .  S
C836       Br842   1.918       .  S
C843        C844   1.412       .  A
C843        C848   1.404       .  A
C844        C845   1.398       .  A
C844       Br860   1.920       .  S
C845        C846   1.401       .  A
C845        H849   1.083       .  S
C846        C850   1.481       .  S
C846        C847   1.409       .  A
C847        C848   1.402       .  A
C847       Br859   1.918   1_655  S
C848        H851   1.082       .  S
C850        C852   1.400   1_655  A
C850        C856   1.408       .  A
C852        C853   1.400       .  A
C852        H857   1.083       .  S
C853        C854   1.418   1_455  A
C853       Br861   1.922       .  S
C854        C855   1.407       .  A
C855        C856   1.400       .  A
C855        H858   1.083       .  S
C856       Br862   1.919       .  S
C863        C864   1.420       .  A
C863        C868   1.411       .  A
C864        C865   1.396       .  A
C864       Br880   1.924       .  S
C865        C866   1.399       .  A
C865        H869   1.084       .  S
C866        C870   1.478       .  S
C866        C867   1.405       .  A
C867        C868   1.400       .  A
C867       Br879   1.919       .  S
C868        H871   1.083       .  S
C870        C872   1.403       .  A
C870        C876   1.408       .  A
C872        C873   1.401       .  A
C872        H877   1.083       .  S
C873        C874   1.411       .  A
C873       Br881   1.919       .  S
C874        C875   1.403       .  A
C875        C876   1.396       .  A
C875        H878   1.084       .  S
C876       Br882   1.920       .  S
C883        C884   1.417       .  A
C883        C888   1.408       .  A
C884        C885   1.401       .  A
C884       Br900   1.921       .  S
C885        C886   1.400       .  A
C885        H889   1.082       .  S
C886        C890   1.480       .  S
C886        C887   1.407       .  A
C887        C888   1.401       .  A
C887       Br899   1.919       .  S
C888        H891   1.082       .  S
C890        C892   1.402       .  A
C890        C896   1.406       .  A
C892        C893   1.402       .  A
C892        H897   1.084       .  S
C893        C894   1.413       .  A
C893       Br901   1.920       .  S
C894        C895   1.407       .  A
C895        C896   1.399       .  A
C895        H898   1.084       .  S
C896       Br902   1.919       .  S
C903        C904   1.416       .  A
C903        C908   1.406       .  A
C904        C905   1.403       .  A
C904       Br920   1.921       .  S
C905        C906   1.401       .  A
C905        H909   1.084       .  S
C906        C910   1.479       .  S
C906        C907   1.406       .  A
C907        C908   1.399       .  A
C907       Br919   1.918       .  S
C908        H911   1.084       .  S
C910        C912   1.402       .  A
C910        C916   1.403       .  A
C912        C913   1.405       .  A
C912        H917   1.084       .  S
C913        C914   1.418       .  A
C913       Br921   1.919       .  S
C914        C915   1.411       .  A
C915        C916   1.395       .  A
C915        H918   1.084       .  S
C916       Br922   1.920       .  S
C923        C924   1.423       .  A
C923        C928   1.413       .  A
C924        C925   1.406       .  A
C924       Br940   1.921       .  S
C925        C926   1.401       .  A
C925        H929   1.084       .  S
C926        C930   1.480       .  S
C926        C927   1.402       .  A
C927        C928   1.396       .  A
C927       Br939   1.920       .  S
C928        H931   1.082       .  S
C930        C932   1.400       .  A
C930        C936   1.407       .  A
C932        C933   1.398       .  A
C932        H937   1.081       .  S
C933        C934   1.415       .  A
C933       Br941   1.922       .  S
C934        C935   1.407       .  A
C935        C936   1.403       .  A
C935        H938   1.081       .  S
C936       Br942   1.917       .  S
C943        C944   1.410       .  A
C943        C948   1.405       .  A
C944        C945   1.405       .  A
C944       Br960   1.918       .  S
C945        C946   1.406       .  A
C945        H949   1.082       .  S
C946        C950   1.484       .  S
C946        C947   1.406       .  A
C947        C948   1.399       .  A
C947       Br959   1.918       .  S
C948        H951   1.081       .  S
C950        C952   1.403       .  A
C950        C956   1.404       .  A
C952        C953   1.404       .  A
C952        H957   1.083       .  S
C953        C954   1.418       .  A
C953       Br961   1.921       .  S
C954        C955   1.410       .  A
C955        C956   1.400       .  A
C955        H958   1.083       .  S
C956       Br962   1.918       .  S
C963        C964   1.414       .  A
C963        C968   1.406       .  A
C964        C965   1.400       .  A
C964       Br980   1.921       .  S
C965        C966   1.403       .  A
C965        H969   1.084       .  S
C966        C970   1.484       .  S
C966        C967   1.409       .  A
C967        C968   1.399       .  A
C967       Br979   1.920       .  S
C968        H971   1.084       .  S
C970        C972   1.403       .  A
C970        C976   1.408       .  A
C972        C973   1.401       .  A
C972        H977   1.083       .  S
C973        C974   1.416       .  A
C973       Br981   1.920       .  S
C974        C975   1.407       .  A
C975        C976   1.398       .  A
C975        H978   1.083       .  S
C976       Br982   1.920       .  S
C983        C984   1.413       .  A
C983        C988   1.407       .  A
C984        C985   1.400       .  A
C984      Br1000   1.920       .  S
C985        C986   1.402       .  A
C985        H989   1.083       .  S
C986        C990   1.480       .  S
C986        C987   1.407       .  A
C987        C988   1.399       .  A
C987       Br999   1.919       .  S
C988        H991   1.083       .  S
C990        C992   1.401       .  A
C990        C996   1.407       .  A
C992        C993   1.399       .  A
C992        H997   1.084       .  S
C993        C994   1.416       .  A
C993      Br1001   1.921       .  S
C994        C995   1.408       .  A
C995        C996   1.400       .  A
C995        H998   1.084       .  S
C996      Br1002   1.919       .  S
C1003      C1004   1.418       .  A
C1003      C1008   1.407       .  A
C1004      C1005   1.398       .  A
C1004     Br1020   1.922       .  S
C1005      C1006   1.399       .  A
C1005      H1009   1.083       .  S
C1006      C1010   1.476       .  S
C1006      C1007   1.406       .  A
C1007      C1008   1.399       .  A
C1007     Br1019   1.919       .  S
C1008      H1011   1.083       .  S
C1010      C1012   1.399       .  A
C1010      C1016   1.406       .  A
C1012      C1013   1.397       .  A
C1012      H1017   1.084       .  S
C1013      C1014   1.417       .  A
C1013     Br1021   1.922       .  S
C1014      C1015   1.408       .  A
C1015      C1016   1.400       .  A
C1015      H1018   1.084       .  S
C1016     Br1022   1.918       .  S
C1023      C1024   1.413       .  A
C1023      C1028   1.406       .  A
C1024      C1025   1.403       .  A
C1024     Br1040   1.919       .  S
C1025      C1026   1.403       .  A
C1025      H1029   1.081       .  S
C1026      C1030   1.476       .  S
C1026      C1027   1.404       .  A
C1027      C1028   1.396       .  A
C1027     Br1039   1.919       .  S
C1028      H1031   1.081       .  S
C1030      C1032   1.400       .  A
C1030      C1036   1.407       .  A
C1032      C1033   1.400       .  A
C1032      H1037   1.084       .  S
C1033      C1034   1.415       .  A
C1033     Br1041   1.921   1_565  S
C1034      C1035   1.404       .  A
C1035      C1036   1.399       .  A
C1035      H1038   1.084       .  S
C1036     Br1042   1.918       .  S
C1043      C1044   1.415       .  A
C1043      C1048   1.406       .  A
C1044      C1045   1.405       .  A
C1044     Br1060   1.920       .  S
C1045      C1046   1.403       .  A
C1045      H1049   1.085       .  S
C1046      C1050   1.485       .  S
C1046      C1047   1.407       .  A
C1047      C1048   1.400       .  A
C1047     Br1059   1.918       .  S
C1048      H1051   1.085       .  S
C1050      C1052   1.404       .  A
C1050      C1056   1.407       .  A
C1052      C1053   1.408       .  A
C1052      H1057   1.083       .  S
C1053      C1054   1.416       .  A
C1053     Br1061   1.919       .  S
C1054      C1055   1.406       .  A
C1055      C1056   1.397       .  A
C1055      H1058   1.083       .  S
C1056     Br1062   1.920       .  S
C1063      C1064   1.419       .  A
C1063      C1068   1.409       .  A
C1064      C1065   1.402       .  A
C1064     Br1080   1.922       .  S
C1065      C1066   1.401       .  A
C1065      H1069   1.081       .  S
C1066      C1070   1.490       .  S
C1066      C1067   1.409       .  A
C1067      C1068   1.406       .  A
C1067     Br1079   1.917       .  S
C1068      H1071   1.081   1_545  S
C1070      C1072   1.404       .  A
C1070      C1076   1.408       .  A
C1072      C1073   1.406       .  A
C1072      H1077   1.084       .  S
C1073      C1074   1.417       .  A
C1073     Br1081   1.919       .  S
C1074      C1075   1.408       .  A
C1075      C1076   1.403       .  A
C1075      H1078   1.083       .  S
C1076     Br1082   1.919       .  S
C1083      C1084   1.414       .  A
C1083      C1088   1.406       .  A
C1084      C1085   1.400       .  A
C1084     Br1100   1.920       .  S
C1085      C1086   1.402       .  A
C1085      H1089   1.084       .  S
C1086      C1090   1.485       .  S
C1086      C1087   1.409       .  A
C1087      C1088   1.401       .  A
C1087     Br1099   1.919       .  S
C1088      H1091   1.084       .  S
C1090      C1092   1.401       .  A
C1090      C1096   1.409       .  A
C1092      C1093   1.400       .  A
C1092      H1097   1.083       .  S
C1093      C1094   1.418       .  A
C1093     Br1101   1.922       .  S
C1094      C1095   1.406       .  A
C1095      C1096   1.402       .  A
C1095      H1098   1.083       .  S
C1096     Br1102   1.918       .  S
C1103      C1104   1.412       .  A
C1103      C1108   1.402       .  A
C1104      C1105   1.403       .  A
C1104     Br1120   1.920       .  S
C1105      C1106   1.405       .  A
C1105      H1109   1.084       .  S
C1106      C1110   1.489       .  S
C1106      C1107   1.412       .  A
C1107      C1108   1.400       .  A
C1107     Br1119   1.920       .  S
C1108      H1111   1.085       .  S
C1110      C1112   1.401       .  A
C1110      C1116   1.411       .  A
C1112      C1113   1.398       .  A
C1112      H1117   1.084       .  S
C1113      C1114   1.419       .  A
C1113     Br1121   1.923       .  S
C1114      C1115   1.407       .  A
C1115      C1116   1.404       .  A
C1115      H1118   1.082       .  S
C1116     Br1122   1.918       .  S
C1123      C1124   1.420       .  A
C1123      C1128   1.408       .  A
C1124      C1125   1.402       .  A
C1124     Br1140   1.922       .  S
C1125      C1126   1.402       .  A
C1125      H1129   1.084       .  S
C1126      C1130   1.491       .  S
C1126      C1127   1.410       .  A
C1127      C1128   1.402       .  A
C1127     Br1139   1.920       .  S
C1128      H1131   1.084   1_655  S
C1130      C1132   1.405       .  A
C1130      C1136   1.412       .  A
C1132      C1133   1.402       .  A
C1132      H1137   1.083       .  S
C1133      C1134   1.411       .  A
C1133     Br1141   1.919       .  S
C1134      C1135   1.404       .  A
C1135      C1136   1.403       .  A
C1135      H1138   1.083       .  S
C1136     Br1142   1.919       .  S
C1143      C1144   1.418       .  A
C1143      C1148   1.409       .  A
C1144      C1145   1.406       .  A
C1144     Br1160   1.920       .  S
C1145      C1146   1.403       .  A
C1145      H1149   1.083       .  S
C1146      C1150   1.482       .  S
C1146      C1147   1.404       .  A
C1147      C1148   1.398       .  A
C1147     Br1159   1.919       .  S
C1148      H1151   1.083       .  S
C1150      C1152   1.405       .  A
C1150      C1156   1.405       .  A
C1152      C1153   1.406       .  A
C1152      H1157   1.083       .  S
C1153      C1154   1.414       .  A
C1153     Br1161   1.919   1_556  S
C1154      C1155   1.407       .  A
C1155      C1156   1.398       .  A
C1155      H1158   1.083       .  S
C1156     Br1162   1.919       .  S
C1163      C1164   1.420       .  A
C1163      C1168   1.412       .  A
C1164      C1165   1.405       .  A
C1164     Br1180   1.919       .  S
C1165      C1166   1.401       .  A
C1165      H1169   1.084       .  S
C1166      C1170   1.479       .  S
C1166      C1167   1.403       .  A
C1167      C1168   1.396       .  A
C1167     Br1179   1.920       .  S
C1168      H1171   1.084       .  S
C1170      C1172   1.399       .  A
C1170      C1176   1.406       .  A
C1172      C1173   1.399       .  A
C1172      H1177   1.085       .  S
C1173      C1174   1.418       .  A
C1173     Br1181   1.922       .  S
C1174      C1175   1.408       .  A
C1175      C1176   1.402       .  A
C1175      H1178   1.084       .  S
C1176     Br1182   1.917       .  S
C1183      C1184   1.412       .  A
C1183      C1188   1.404       .  A
C1184      C1185   1.399       .  A
C1184     Br1200   1.920       .  S
C1185      C1186   1.400       .  A
C1185      H1189   1.084       .  S
C1186      C1190   1.473       .  S
C1186      C1187   1.406       .  A
C1187      C1188   1.398       .  A
C1187     Br1199   1.919       .  S
C1188      H1191   1.084       .  S
C1190      C1192   1.398       .  A
C1190      C1196   1.402       .  A
C1192      C1193   1.398       .  A
C1192      H1197   1.084       .  S
C1193      C1194   1.421       .  A
C1193     Br1201   1.920   1_554  S
C1194      C1195   1.412       .  A
C1195      C1196   1.397       .  A
C1195      H1198   1.084       .  S
C1196     Br1202   1.918       .  S
C1203      C1204   1.415       .  A
C1203      C1208   1.409       .  A
C1204      C1205   1.403       .  A
C1204     Br1220   1.919       .  S
C1205      C1206   1.404       .  A
C1205      H1209   1.084       .  S
C1206      C1210   1.487       .  S
C1206      C1207   1.407       .  A
C1207      C1208   1.401       .  A
C1207     Br1219   1.919       .  S
C1208      H1211   1.084       .  S
C1210      C1212   1.406       .  A
C1210      C1216   1.407       .  A
C1212      C1213   1.405       .  A
C1212      H1217   1.084       .  S
C1213      C1214   1.414       .  A
C1213     Br1221   1.918   1_556  S
C1214      C1215   1.406       .  A
C1215      C1216   1.397       .  A
C1215      H1218   1.083       .  S
C1216     Br1222   1.920       .  S
C1223      C1224   1.420       .  A
C1223      C1228   1.412       .  A
C1224      C1225   1.400       .  A
C1224     Br1240   1.917       .  S
C1225      C1226   1.401       .  A
C1225      H1229   1.084       .  S
C1226      C1230   1.484       .  S
C1226      C1227   1.407       .  A
C1227      C1228   1.401       .  A
C1227     Br1239   1.920   1_655  S
C1228      H1231   1.083       .  S
C1230      C1232   1.402       .  A
C1230      C1236   1.409   1_655  A
C1232      C1233   1.398       .  A
C1232      H1237   1.084       .  S
C1233      C1234   1.415   1_655  A
C1233     Br1241   1.922       .  S
C1234      C1235   1.407       .  A
C1235      C1236   1.401       .  A
C1235      H1238   1.084       .  S
C1236     Br1242   1.919       .  S
C1243      C1244   1.414       .  A
C1243      C1248   1.406   1_655  A
C1244      C1245   1.398       .  A
C1244     Br1260   1.921   1_545  S
C1245      C1246   1.401       .  A
C1245      H1249   1.083       .  S
C1246      C1250   1.480       .  S
C1246      C1247   1.409       .  A
C1247      C1248   1.399   1_655  A
C1247     Br1259   1.920   1_655  S
C1248      H1251   1.083       .  S
C1250      C1252   1.403       .  A
C1250      C1256   1.408       .  A
C1252      C1253   1.399       .  A
C1252      H1257   1.083       .  S
C1253      C1254   1.413       .  A
C1253     Br1261   1.921       .  S
C1254      C1255   1.405       .  A
C1255      C1256   1.398       .  A
C1255      H1258   1.083       .  S
C1256     Br1262   1.920       .  S
C1263      C1264   1.416       .  A
C1263      C1268   1.409       .  A
C1264      C1265   1.404       .  A
C1264     Br1280   1.919       .  S
C1265      C1266   1.403       .  A
C1265      H1269   1.084       .  S
C1266      C1270   1.485       .  S
C1266      C1267   1.407       .  A
C1267      C1268   1.400       .  A
C1267     Br1279   1.920       .  S
C1268      H1271   1.083       .  S
C1270      C1272   1.402       .  A
C1270      C1276   1.409       .  A
C1272      C1273   1.402       .  A
C1272      H1277   1.082       .  S
C1273      C1274   1.415       .  A
C1273     Br1281   1.921       .  S
C1274      C1275   1.406       .  A
C1275      C1276   1.402       .  A
C1275      H1278   1.082       .  S
C1276     Br1282   1.919       .  S
C1283      C1284   1.414       .  A
C1283      C1288   1.405       .  A
C1284      C1285   1.405       .  A
C1284     Br1300   1.919   1_556  S
C1285      C1286   1.404       .  A
C1285      H1289   1.083       .  S
C1286      C1290   1.478       .  S
C1286      C1287   1.404       .  A
C1287      C1288   1.394       .  A
C1287     Br1299   1.920       .  S
C1288      H1291   1.081       .  S
C1290      C1292   1.401       .  A
C1290      C1296   1.404       .  A
C1292      C1293   1.402       .  A
C1292      H1297   1.084       .  S
C1293      C1294   1.418       .  A
C1293     Br1301   1.920       .  S
C1294      C1295   1.409       .  A
C1295      C1296   1.397       .  A
C1295      H1298   1.084       .  S
C1296     Br1302   1.919       .  S
C1303      C1304   1.419       .  A
C1303      C1308   1.409       .  A
C1304      C1305   1.404       .  A
C1304     Br1320   1.921       .  S
C1305      C1306   1.401       .  A
C1305      H1309   1.084       .  S
C1306      C1310   1.482       .  S
C1306      C1307   1.406       .  A
C1307      C1308   1.398       .  A
C1307     Br1319   1.920       .  S
C1308      H1311   1.083       .  S
C1310      C1312   1.401       .  A
C1310      C1316   1.408       .  A
C1312      C1313   1.399       .  A
C1312      H1317   1.082       .  S
C1313      C1314   1.414       .  A
C1313     Br1321   1.920       .  S
C1314      C1315   1.406       .  A
C1315      C1316   1.403       .  A
C1315      H1318   1.082       .  S
C1316     Br1322   1.918       .  S
C1323      C1324   1.417       .  A
C1323      C1328   1.409       .  A
C1324      C1325   1.401       .  A
C1324     Br1340   1.921       .  S
C1325      C1326   1.401       .  A
C1325      H1329   1.083       .  S
C1326      C1330   1.475       .  S
C1326      C1327   1.403       .  A
C1327      C1328   1.396       .  A
C1327     Br1339   1.919       .  S
C1328      H1331   1.083       .  S
C1330      C1332   1.400       .  A
C1330      C1336   1.404       .  A
C1332      C1333   1.400       .  A
C1332      H1337   1.084   1_554  S
C1333      C1334   1.417       .  A
C1333     Br1341   1.921   1_554  S
C1334      C1335   1.408       .  A
C1335      C1336   1.398       .  A
C1335      H1338   1.082       .  S
C1336     Br1342   1.918       .  S
C1343      C1344   1.412       .  A
C1343      C1348   1.406       .  A
C1344      C1345   1.404       .  A
C1344     Br1360   1.919   1_556  S
C1345      C1346   1.404       .  A
C1345      H1349   1.083       .  S
C1346      C1350   1.479       .  S
C1346      C1347   1.405       .  A
C1347      C1348   1.398       .  A
C1347     Br1359   1.919       .  S
C1348      H1351   1.082       .  S
C1350      C1352   1.402       .  A
C1350      C1356   1.405       .  A
C1352      C1353   1.401       .  A
C1352      H1357   1.084       .  S
C1353      C1354   1.415       .  A
C1353     Br1361   1.920       .  S
C1354      C1355   1.408       .  A
C1355      C1356   1.400       .  A
C1355      H1358   1.084       .  S
C1356     Br1362   1.918       .  S
C1363      C1364   1.414       .  A
C1363      C1368   1.407       .  A
C1364      C1365   1.398       .  A
C1364     Br1380   1.921       .  S
C1365      C1366   1.400       .  A
C1365      H1369   1.085       .  S
C1366      C1370   1.471       .  S
C1366      C1367   1.403       .  A
C1367      C1368   1.395       .  A
C1367     Br1379   1.918       .  S
C1368      H1371   1.083       .  S
C1370      C1372   1.398       .  A
C1370      C1376   1.402       .  A
C1372      C1373   1.400       .  A
C1372      H1377   1.084       .  S
C1373      C1374   1.421       .  A
C1373     Br1381   1.922       .  S
C1374      C1375   1.409       .  A
C1375      C1376   1.395       .  A
C1375      H1378   1.083       .  S
C1376     Br1382   1.920       .  S
C1383      C1384   1.414       .  A
C1383      C1388   1.408       .  A
C1384      C1385   1.402       .  A
C1384     Br1400   1.919       .  S
C1385      C1386   1.403       .  A
C1385      H1389   1.085       .  S
C1386      C1390   1.480       .  S
C1386      C1387   1.405       .  A
C1387      C1388   1.399       .  A
C1387     Br1399   1.918       .  S
C1388      H1391   1.084       .  S
C1390      C1392   1.402       .  A
C1390      C1396   1.409       .  A
C1392      C1393   1.399       .  A
C1392      H1397   1.084       .  S
C1393      C1394   1.410       .  A
C1393     Br1401   1.919       .  S
C1394      C1395   1.402       .  A
C1395      C1396   1.402       .  A
C1395      H1398   1.084       .  S
C1396     Br1402   1.918       .  S
C1403      C1404   1.415       .  A
C1403      C1408   1.406       .  A
C1404      C1405   1.401       .  A
C1404     Br1420   1.921       .  S
C1405      C1406   1.401       .  A
C1405      H1409   1.083       .  S
C1406      C1410   1.484       .  S
C1406      C1407   1.408       .  A
C1407      C1408   1.403       .  A
C1407     Br1419   1.917       .  S
C1408      H1411   1.083       .  S
C1410      C1412   1.399       .  A
C1410      C1416   1.406       .  A
C1412      C1413   1.400       .  A
C1412      H1417   1.082       .  S
C1413      C1414   1.420       .  A
C1413     Br1421   1.922       .  S
C1414      C1415   1.411       .  A
C1415      C1416   1.405       .  A
C1415      H1418   1.081       .  S
C1416     Br1422   1.917       .  S
C1423      C1424   1.411       .  A
C1423      C1428   1.404       .  A
C1424      C1425   1.400       .  A
C1424     Br1440   1.920       .  S
C1425      C1426   1.402       .  A
C1425      H1429   1.085       .  S
C1426      C1430   1.483       .  S
C1426      C1427   1.410       .  A
C1427      C1428   1.401       .  A
C1427     Br1439   1.918       .  S
C1428      H1431   1.085       .  S
C1430      C1432   1.401       .  A
C1430      C1436   1.405       .  A
C1432      C1433   1.405       .  A
C1432      H1437   1.083       .  S
C1433      C1434   1.422       .  A
C1433     Br1441   1.921       .  S
C1434      C1435   1.412       .  A
C1435      C1436   1.397       .  A
C1435      H1438   1.082       .  S
C1436     Br1442   1.921       .  S
C1443      C1444   1.414       .  A
C1443      C1448   1.407       .  A
C1444      C1445   1.399       .  A
C1444     Br1460   1.922       .  S
C1445      C1446   1.402       .  A
C1445      H1449   1.084       .  S
C1446      C1450   1.483       .  S
C1446      C1447   1.410       .  A
C1447      C1448   1.401       .  A
C1447     Br1459   1.920       .  S
C1448      H1451   1.084       .  S
C1450      C1452   1.403       .  A
C1450      C1456   1.410       .  A
C1452      C1453   1.400       .  A
C1452      H1457   1.084       .  S
C1453      C1454   1.415       .  A
C1453     Br1461   1.921       .  S
C1454      C1455   1.405       .  A
C1455      C1456   1.399       .  A
C1455      H1458   1.084       .  S
C1456     Br1462   1.920       .  S
C1463      C1464   1.417       .  A
C1463      C1468   1.406       .  A
C1464      C1465   1.403       .  A
C1464     Br1480   1.921       .  S
C1465      C1466   1.401       .  A
C1465      H1469   1.084       .  S
C1466      C1470   1.486       .  S
C1466      C1467   1.409       .  A
C1467      C1468   1.403       .  A
C1467     Br1479   1.918       .  S
C1468      H1471   1.084       .  S
C1470      C1472   1.402       .  A
C1470      C1476   1.410       .  A
C1472      C1473   1.401       .  A
C1472      H1477   1.084       .  S
C1473      C1474   1.412       .  A
C1473     Br1481   1.920       .  S
C1474      C1475   1.404       .  A
C1475      C1476   1.404       .  A
C1475      H1478   1.084   1_556  S
C1476     Br1482   1.917       .  S
C1483      C1484   1.409       .  A
C1483      C1488   1.404       .  A
C1484      C1485   1.398       .  A
C1484     Br1500   1.919       .  S
C1485      C1486   1.403       .  A
C1485      H1489   1.081       .  S
C1486      C1490   1.474       .  S
C1486      C1487   1.406       .  A
C1487      C1488   1.396       .  A
C1487     Br1499   1.919       .  S
C1488      H1491   1.081       .  S
C1490      C1492   1.401       .  A
C1490      C1496   1.405       .  A
C1492      C1493   1.397       .  A
C1492      H1497   1.084       .  S
C1493      C1494   1.413       .  A
C1493     Br1501   1.921       .  S
C1494      C1495   1.406       .  A
C1495      C1496   1.396       .  A
C1495      H1498   1.082       .  S
C1496     Br1502   1.919       .  S
C1503      C1504   1.417       .  A
C1503      C1508   1.406       .  A
C1504      C1505   1.402       .  A
C1504     Br1520   1.921       .  S
C1505      C1506   1.400       .  A
C1505      H1509   1.085       .  S
C1506      C1510   1.481       .  S
C1506      C1507   1.408       .  A
C1507      C1508   1.401       .  A
C1507     Br1519   1.918       .  S
C1508      H1511   1.084       .  S
C1510      C1512   1.405       .  A
C1510      C1516   1.404       .  A
C1512      C1513   1.407       .  A
C1512      H1517   1.084       .  S
C1513      C1514   1.414       .  A
C1513     Br1521   1.919       .  S
C1514      C1515   1.407       .  A
C1515      C1516   1.395       .  A
C1515      H1518   1.084       .  S
C1516     Br1522   1.920       .  S
C1523      C1524   1.417       .  A
C1523      C1528   1.408       .  A
C1524      C1525   1.400       .  A
C1524     Br1540   1.922       .  S
C1525      C1526   1.400       .  A
C1525      H1529   1.083       .  S
C1526      C1530   1.485       .  S
C1526      C1527   1.408       .  A
C1527      C1528   1.406       .  A
C1527     Br1539   1.917       .  S
C1528      H1531   1.083       .  S
C1530      C1532   1.401       .  A
C1530      C1536   1.404       .  A
C1532      C1533   1.407       .  A
C1532      H1537   1.084       .  S
C1533      C1534   1.424       .  A
C1533     Br1541   1.922       .  S
C1534      C1535   1.410       .  A
C1535      C1536   1.397       .  A
C1535      H1538   1.081       .  S
C1536     Br1542   1.920       .  S
C1543      C1544   1.413       .  A
C1543      C1548   1.405       .  A
C1544      C1545   1.400       .  A
C1544     Br1560   1.920       .  S
C1545      C1546   1.403       .  A
C1545      H1549   1.083       .  S
C1546      C1550   1.486       .  S
C1546      C1547   1.410       .  A
C1547      C1548   1.403       .  A
C1547     Br1559   1.917       .  S
C1548      H1551   1.083       .  S
C1550      C1552   1.401       .  A
C1550      C1556   1.408       .  A
C1552      C1553   1.401       .  A
C1552      H1557   1.082       .  S
C1553      C1554   1.419       .  A
C1553     Br1561   1.922       .  S
C1554      C1555   1.408       .  A
C1555      C1556   1.404       .  A
C1555      H1558   1.081       .  S
C1556     Br1562   1.918       .  S
C1563      C1564   1.418       .  A
C1563      C1568   1.408       .  A
C1564      C1565   1.401       .  A
C1564     Br1580   1.922       .  S
C1565      C1566   1.403       .  A
C1565      H1569   1.083       .  S
C1566      C1570   1.482       .  S
C1566      C1567   1.407       .  A
C1567      C1568   1.396       .  A
C1567     Br1579   1.921       .  S
C1568      H1571   1.082       .  S
C1570      C1572   1.404       .  A
C1570      C1576   1.409       .  A
C1572      C1573   1.398       .  A
C1572      H1577   1.083       .  S
C1573      C1574   1.411       .  A
C1573     Br1581   1.920       .  S
C1574      C1575   1.406       .  A
C1575      C1576   1.398       .  A
C1575      H1578   1.083       .  S
C1576     Br1582   1.920       .  S
C1583      C1584   1.418       .  A
C1583      C1588   1.406       .  A
C1584      C1585   1.401       .  A
C1584     Br1600   1.921       .  S
C1585      C1586   1.401       .  A
C1585      H1589   1.084       .  S
C1586      C1590   1.487       .  S
C1586      C1587   1.410       .  A
C1587      C1588   1.402       .  A
C1587     Br1599   1.920       .  S
C1588      H1591   1.084       .  S
C1590      C1592   1.403       .  A
C1590      C1596   1.412       .  A
C1592      C1593   1.399       .  A
C1592      H1597   1.084       .  S
C1593      C1594   1.412       .  A
C1593     Br1601   1.921       .  S
C1594      C1595   1.403       .  A
C1595      C1596   1.403       .  A
C1595      H1598   1.084       .  S
C1596     Br1602   1.918       .  S
C1603      C1604   1.415       .  A
C1603      C1608   1.406       .  A
C1604      C1605   1.396       .  A
C1604     Br1620   1.919       .  S
C1605      C1606   1.398       .  A
C1605      H1609   1.082       .  S
C1606      C1610   1.468       .  S
C1606      C1607   1.405       .  A
C1607      C1608   1.396       .  A
C1607     Br1619   1.919       .  S
C1608      H1611   1.082       .  S
C1610      C1612   1.400       .  A
C1610      C1616   1.404       .  A
C1612      C1613   1.398       .  A
C1612      H1617   1.084       .  S
C1613      C1614   1.413       .  A
C1613     Br1621   1.920       .  S
C1614      C1615   1.406       .  A
C1615      C1616   1.393       .  A
C1615      H1618   1.084       .  S
C1616     Br1622   1.919       .  S
C1623      C1624   1.414       .  A
C1623      C1628   1.405       .  A
C1624      C1625   1.399       .  A
C1624     Br1640   1.921   1_545  S
C1625      C1626   1.400       .  A
C1625      H1629   1.083       .  S
C1626      C1630   1.478       .  S
C1626      C1627   1.408       .  A
C1627      C1628   1.401       .  A
C1627     Br1639   1.919       .  S
C1628      H1631   1.083       .  S
C1630      C1632   1.397       .  A
C1630      C1636   1.408       .  A
C1632      C1633   1.396       .  A
C1632      H1637   1.085       .  S
C1633      C1634   1.419       .  A
C1633     Br1641   1.924       .  S
C1634      C1635   1.407       .  A
C1635      C1636   1.403       .  A
C1635      H1638   1.084       .  S
C1636     Br1642   1.917       .  S
C1643      C1644   1.414       .  A
C1643      C1648   1.405       .  A
C1644      C1645   1.395       .  A
C1644     Br1660   1.921       .  S
C1645      C1646   1.398       .  A
C1645      H1649   1.084       .  S
C1646      C1650   1.479       .  S
C1646      C1647   1.410       .  A
C1647      C1648   1.403       .  A
C1647     Br1659   1.918       .  S
C1648      H1651   1.084       .  S
C1650      C1652   1.402       .  A
C1650      C1656   1.406       .  A
C1652      C1653   1.401       .  A
C1652      H1657   1.085       .  S
C1653      C1654   1.417       .  A
C1653     Br1661   1.921       .  S
C1654      C1655   1.409       .  A
C1655      C1656   1.397       .  A
C1655      H1658   1.084       .  S
C1656     Br1662   1.920       .  S
C1663      C1664   1.412       .  A
C1663      C1668   1.403       .  A
C1664      C1665   1.404       .  A
C1664     Br1680   1.919       .  S
C1665      C1666   1.405       .  A
C1665      H1669   1.084       .  S
C1666      C1670   1.490       .  S
C1666      C1667   1.412       .  A
C1667      C1668   1.401       .  A
C1667     Br1679   1.920       .  S
C1668      H1671   1.084       .  S
C1670      C1672   1.403       .  A
C1670      C1676   1.412   1_565  A
C1672      C1673   1.399       .  A
C1672      H1677   1.085       .  S
C1673      C1674   1.413   1_565  A
C1673     Br1681   1.921       .  S
C1674      C1675   1.406       .  A
C1675      C1676   1.405       .  A
C1675      H1678   1.084       .  S
C1676     Br1682   1.918       .  S
C1683      C1684   1.424       .  A
C1683      C1688   1.409       .  A
C1684      C1685   1.400       .  A
C1684     Br1700   1.924       .  S
C1685      C1686   1.398       .  A
C1685      H1689   1.083       .  S
C1686      C1690   1.479       .  S
C1686      C1687   1.405       .  A
C1687      C1688   1.401       .  A
C1687     Br1699   1.917       .  S
C1688      H1691   1.082       .  S
C1690      C1692   1.399       .  A
C1690      C1696   1.406       .  A
C1692      C1693   1.399       .  A
C1692      H1697   1.084       .  S
C1693      C1694   1.419       .  A
C1693     Br1701   1.922       .  S
C1694      C1695   1.409       .  A
C1695      C1696   1.401       .  A
C1695      H1698   1.083       .  S
C1696     Br1702   1.918       .  S
C1703      C1704   1.414       .  A
C1703      C1708   1.405       .  A
C1704      C1705   1.398       .  A
C1704     Br1720   1.921       .  S
C1705      C1706   1.400       .  A
C1705      H1709   1.084       .  S
C1706      C1710   1.478       .  S
C1706      C1707   1.408       .  A
C1707      C1708   1.400       .  A
C1707     Br1719   1.918       .  S
C1708      H1711   1.084       .  S
C1710      C1712   1.400       .  A
C1710      C1716   1.408       .  A
C1712      C1713   1.399       .  A
C1712      H1717   1.082       .  S
C1713      C1714   1.415       .  A
C1713     Br1721   1.921   1_565  S
C1714      C1715   1.405       .  A
C1715      C1716   1.400       .  A
C1715      H1718   1.082       .  S
C1716     Br1722   1.919       .  S
C1723      C1724   1.418       .  A
C1723      C1728   1.413       .  A
C1724      C1725   1.410       .  A
C1724     Br1740   1.918       .  S
C1725      C1726   1.406       .  A
C1725      H1729   1.082       .  S
C1726      C1730   1.492       .  S
C1726      C1727   1.407       .  A
C1727      C1728   1.398       .  A
C1727     Br1739   1.922       .  S
C1728      H1731   1.081       .  S
C1730      C1732   1.405       .  A
C1730      C1736   1.409       .  A
C1732      C1733   1.407       .  A
C1732      H1737   1.085       .  S
C1733      C1734   1.416       .  A
C1733     Br1741   1.919       .  S
C1734      C1735   1.408       .  A
C1735      C1736   1.401       .  A
C1735      H1738   1.084       .  S
C1736     Br1742   1.920       .  S
C1743      C1744   1.418       .  A
C1743      C1748   1.409       .  A
C1744      C1745   1.398       .  A
C1744     Br1760   1.922       .  S
C1745      C1746   1.398       .  A
C1745      H1749   1.082       .  S
C1746      C1750   1.472       .  S
C1746      C1747   1.404       .  A
C1747      C1748   1.398       .  A
C1747     Br1759   1.918       .  S
C1748      H1751   1.082       .  S
C1750      C1752   1.398       .  A
C1750      C1756   1.405       .  A
C1752      C1753   1.399       .  A
C1752      H1757   1.083       .  S
C1753      C1754   1.420       .  A
C1753     Br1761   1.923       .  S
C1754      C1755   1.407       .  A
C1755      C1756   1.398       .  A
C1755      H1758   1.082       .  S
C1756     Br1762   1.918       .  S
C1763      C1764   1.416       .  A
C1763      C1768   1.408       .  A
C1764      C1765   1.406       .  A
C1764     Br1780   1.920       .  S
C1765      C1766   1.405       .  A
C1765      H1769   1.084       .  S
C1766      C1770   1.489       .  S
C1766      C1767   1.406       .  A
C1767      C1768   1.402       .  A
C1767     Br1779   1.918       .  S
C1768      H1771   1.083       .  S
C1770      C1772   1.406       .  A
C1770      C1776   1.405       .  A
C1772      C1773   1.408       .  A
C1772      H1777   1.082       .  S
C1773      C1774   1.415       .  A
C1773     Br1781   1.918       .  S
C1774      C1775   1.410       .  A
C1775      C1776   1.399       .  A
C1775      H1778   1.083       .  S
C1776     Br1782   1.919       .  S
C1783      C1784   1.413       .  A
C1783      C1788   1.406       .  A
C1784      C1785   1.401       .  A
C1784     Br1800   1.920       .  S
C1785      C1786   1.401       .  A
C1785      H1789   1.085       .  S
C1786      C1790   1.483       .  S
C1786      C1787   1.408       .  A
C1787      C1788   1.403       .  A
C1787     Br1799   1.918       .  S
C1788      H1791   1.085       .  S
C1790      C1792   1.403       .  A
C1790      C1796   1.404       .  A
C1792      C1793   1.407       .  A
C1792      H1797   1.084       .  S
C1793      C1794   1.418       .  A
C1793     Br1801   1.919       .  S
C1794      C1795   1.411       .  A
C1795      C1796   1.396       .  A
C1795      H1798   1.083       .  S
C1796     Br1802   1.920       .  S
C1803      C1804   1.412       .  A
C1803      C1808   1.403       .  A
C1804      C1805   1.396       .  A
C1804     Br1820   1.922       .  S
C1805      C1806   1.402       .  A
C1805      H1809   1.083       .  S
C1806      C1810   1.480       .  S
C1806      C1807   1.410       .  A
C1807      C1808   1.400       .  A
C1807     Br1819   1.919       .  S
C1808      H1811   1.083       .  S
C1810      C1812   1.402       .  A
C1810      C1816   1.408       .  A
C1812      C1813   1.399       .  A
C1812      H1817   1.083       .  S
C1813      C1814   1.415       .  A
C1813     Br1821   1.921       .  S
C1814      C1815   1.406       .  A
C1815      C1816   1.397       .  A
C1815      H1818   1.083       .  S
C1816     Br1822   1.921       .  S
C1823      C1824   1.410       .  A
C1823      C1828   1.406       .  A
C1824      C1825   1.402       .  A
C1824     Br1840   1.918       .  S
C1825      C1826   1.403       .  A
C1825      H1829   1.085       .  S
C1826      C1830   1.481       .  S
C1826      C1827   1.407       .  A
C1827      C1828   1.400       .  A
C1827     Br1839   1.918       .  S
C1828      H1831   1.085       .  S
C1830      C1832   1.403       .  A
C1830      C1836   1.403       .  A
C1832      C1833   1.404       .  A
C1832      H1837   1.085       .  S
C1833      C1834   1.418       .  A
C1833     Br1841   1.920       .  S
C1834      C1835   1.410       .  A
C1835      C1836   1.398       .  A
C1835      H1838   1.084   1_655  S
C1836     Br1842   1.918   1_655  S
C1843      C1844   1.415       .  A
C1843      C1848   1.408       .  A
C1844      C1845   1.405       .  A
C1844     Br1860   1.919       .  S
C1845      C1846   1.404       .  A
C1845      H1849   1.085       .  S
C1846      C1850   1.479       .  S
C1846      C1847   1.404       .  A
C1847      C1848   1.396       .  A
C1847     Br1859   1.919       .  S
C1848      H1851   1.084       .  S
C1850      C1852   1.398       .  A
C1850      C1856   1.405       .  A
C1852      C1853   1.398       .  A
C1852      H1857   1.083       .  S
C1853      C1854   1.420       .  A
C1853     Br1861   1.923   1_565  S
C1854      C1855   1.411       .  A
C1855      C1856   1.403       .  A
C1855      H1858   1.082       .  S
C1856     Br1862   1.917       .  S
C1863      C1864   1.412       .  A
C1863      C1868   1.403       .  A
C1864      C1865   1.399       .  A
C1864     Br1880   1.920       .  S
C1865      C1866   1.400       .  A
C1865      H1869   1.080       .  S
C1866      C1870   1.472       .  S
C1866      C1867   1.406       .  A
C1867      C1868   1.396       .  A
C1867     Br1879   1.919       .  S
C1868      H1871   1.089       .  S
C1870      C1872   1.398       .  A
C1870      C1876   1.404       .  A
C1872      C1873   1.397       .  A
C1872      H1877   1.084       .  S
C1873      C1874   1.419       .  A
C1873     Br1881   1.923   1_565  S
C1874      C1875   1.409       .  A
C1875      C1876   1.398       .  A
C1875      H1878   1.083       .  S
C1876     Br1882   1.918       .  S
C1883      C1884   1.417       .  A
C1883      C1888   1.406       .  A
C1884      C1885   1.400       .  A
C1884     Br1900   1.921       .  S
C1885      C1886   1.400       .  A
C1885      H1889   1.084       .  S
C1886      C1890   1.480       .  S
C1886      C1887   1.408       .  A
C1887      C1888   1.401       .  A
C1887     Br1899   1.919       .  S
C1888      H1891   1.084       .  S
C1890      C1892   1.399       .  A
C1890      C1896   1.408       .  A
C1892      C1893   1.398       .  A
C1892      H1897   1.084       .  S
C1893      C1894   1.418       .  A
C1893     Br1901   1.922       .  S
C1894      C1895   1.407       .  A
C1895      C1896   1.402       .  A
C1895      H1898   1.083       .  S
C1896     Br1902   1.918       .  S
C1903      C1904   1.423       .  A
C1903      C1908   1.414       .  A
C1904      C1905   1.405       .  A
C1904     Br1920   1.920   1_655  S
C1905      C1906   1.400       .  A
C1905      H1909   1.084   1_655  S
C1906      C1910   1.482       .  S
C1906      C1907   1.403       .  A
C1907      C1908   1.398       .  A
C1907     Br1919   1.920       .  S
C1908      H1911   1.083       .  S
C1910      C1912   1.401   1_655  A
C1910      C1916   1.406       .  A
C1912      C1913   1.404       .  A
C1912      H1917   1.084       .  S
C1913      C1914   1.419       .  A
C1913     Br1921   1.920       .  S
C1914      C1915   1.409       .  A
C1915      C1916   1.399   1_455  A
C1915      H1918   1.084       .  S
C1916     Br1922   1.919       .  S
C1923      C1924   1.412       .  A
C1923      C1928   1.405       .  A
C1924      C1925   1.399       .  A
C1924     Br1940   1.920       .  S
C1925      C1926   1.402       .  A
C1925      H1929   1.084       .  S
C1926      C1930   1.476       .  S
C1926      C1927   1.406       .  A
C1927      C1928   1.397       .  A
C1927     Br1939   1.919       .  S
C1928      H1931   1.083       .  S
C1930      C1932   1.400       .  A
C1930      C1936   1.405       .  A
C1932      C1933   1.400       .  A
C1932      H1937   1.084       .  S
C1933      C1934   1.419       .  A
C1933     Br1941   1.923       .  S
C1934      C1935   1.408       .  A
C1935      C1936   1.397       .  A
C1935      H1938   1.083       .  S
C1936     Br1942   1.919       .  S
C1943      C1944   1.417       .  A
C1943      C1948   1.410       .  A
C1944      C1945   1.402       .  A
C1944     Br1960   1.921       .  S
C1945      C1946   1.403       .  A
C1945      H1949   1.085       .  S
C1946      C1950   1.482       .  S
C1946      C1947   1.405       .  A
C1947      C1948   1.398       .  A
C1947     Br1959   1.919       .  S
C1948      H1951   1.084       .  S
C1950      C1952   1.401       .  A
C1950      C1956   1.410       .  A
C1952      C1953   1.398       .  A
C1952      H1957   1.084       .  S
C1953      C1954   1.411       .  A
C1953     Br1961   1.920       .  S
C1954      C1955   1.404       .  A
C1955      C1956   1.402       .  A
C1955      H1958   1.084       .  S
C1956     Br1962   1.918       .  S
C1963      C1964   1.422       .  A
C1963      C1968   1.413       .  A
C1964      C1965   1.405       .  A
C1964     Br1980   1.920       .  S
C1965      C1966   1.401       .  A
C1965      H1969   1.082       .  S
C1966      C1970   1.480       .  S
C1966      C1967   1.402       .  A
C1967      C1968   1.396       .  A
C1967     Br1979   1.920       .  S
C1968      H1971   1.082       .  S
C1970      C1972   1.399       .  A
C1970      C1976   1.407       .  A
C1972      C1973   1.399       .  A
C1972      H1977   1.083       .  S
C1973      C1974   1.416       .  A
C1973     Br1981   1.922       .  S
C1974      C1975   1.407       .  A
C1975      C1976   1.403       .  A
C1975      H1978   1.083       .  S
C1976     Br1982   1.917       .  S
C1983      C1984   1.410       .  A
C1983      C1988   1.402       .  A
C1984      C1985   1.401       .  A
C1984     Br2000   1.919       .  S
C1985      C1986   1.403       .  A
C1985      H1989   1.084       .  S
C1986      C1990   1.474       .  S
C1986      C1987   1.406       .  A
C1987      C1988   1.396       .  A
C1987     Br1999   1.919       .  S
C1988      H1991   1.084       .  S
C1990      C1992   1.402       .  A
C1990      C1996   1.406       .  A
C1992      C1993   1.397       .  A
C1992      H1997   1.084       .  S
C1993      C1994   1.408       .  A
C1993     Br2001   1.919       .  S
C1994      C1995   1.404       .  A
C1995      C1996   1.399       .  A
C1995      H1998   1.084       .  S
C1996     Br2002   1.918       .  S
C2003      C2004   1.417       .  A
C2003      C2008   1.405       .  A
C2004      C2005   1.403       .  A
C2004     Br2020   1.922       .  S
C2005      C2006   1.401       .  A
C2005      H2009   1.081       .  S
C2006      C2010   1.481       .  S
C2006      C2007   1.407       .  A
C2007      C2008   1.399       .  A
C2007     Br2019   1.919       .  S
C2008      H2011   1.081       .  S
C2010      C2012   1.403       .  A
C2010      C2016   1.407       .  A
C2012      C2013   1.402       .  A
C2012      H2017   1.084       .  S
C2013      C2014   1.412       .  A
C2013     Br2021   1.918       .  S
C2014      C2015   1.405       .  A
C2015      C2016   1.398       .  A
C2015      H2018   1.084       .  S
C2016     Br2022   1.919       .  S
C2023      C2024   1.415       .  A
C2023      C2028   1.406       .  A
C2024      C2025   1.398       .  A
C2024     Br2040   1.922       .  S
C2025      C2026   1.401       .  A
C2025      H2029   1.085       .  S
C2026      C2030   1.480       .  S
C2026      C2027   1.408       .  A
C2027      C2028   1.402       .  A
C2027     Br2039   1.917       .  S
C2028      H2031   1.085       .  S
C2030      C2032   1.396       .  A
C2030      C2036   1.407       .  A
C2032      C2033   1.395       .  A
C2032      H2037   1.084       .  S
C2033      C2034   1.424       .  A
C2033     Br2041   1.927       .  S
C2034      C2035   1.410       .  A
C2035      C2036   1.406       .  A
C2035      H2038   1.083       .  S
C2036     Br2042   1.917       .  S
C2043      C2044   1.414       .  A
C2043      C2048   1.406       .  A
C2044      C2045   1.401       .  A
C2044     Br2060   1.920       .  S
C2045      C2046   1.401       .  A
C2045      H2049   1.083       .  S
C2046      C2050   1.475       .  S
C2046      C2047   1.405       .  A
C2047      C2048   1.397       .  A
C2047     Br2059   1.919       .  S
C2048      H2051   1.083       .  S
C2050      C2052   1.396       .  A
C2050      C2056   1.404       .  A
C2052      C2053   1.397       .  A
C2052      H2057   1.084       .  S
C2053      C2054   1.422       .  A
C2053     Br2061   1.923       .  S
C2054      C2055   1.411       .  A
C2055      C2056   1.401       .  A
C2055      H2058   1.084       .  S
C2056     Br2062   1.918       .  S
C2063      C2064   1.413       .  A
C2063      C2068   1.403       .  A
C2064      C2065   1.400       .  A
C2064     Br2080   1.920       .  S
C2065      C2066   1.402       .  A
C2065      H2069   1.082       .  S
C2066      C2070   1.487       .  S
C2066      C2067   1.411       .  A
C2067      C2068   1.403       .  A
C2067     Br2079   1.918       .  S
C2068      H2071   1.082       .  S
C2070      C2072   1.400       .  A
C2070      C2076   1.409       .  A
C2072      C2073   1.401       .  A
C2072      H2077   1.084       .  S
C2073      C2074   1.420       .  A
C2073     Br2081   1.922       .  S
C2074      C2075   1.409       .  A
C2075      C2076   1.403       .  A
C2075      H2078   1.084       .  S
C2076     Br2082   1.919       .  S
C2083      C2084   1.414       .  A
C2083      C2088   1.406       .  A
C2084      C2085   1.406       .  A
C2084     Br2100   1.919       .  S
C2085      C2086   1.406       .  A
C2085      H2089   1.083       .  S
C2086      C2090   1.487       .  S
C2086      C2087   1.408       .  A
C2087      C2088   1.397       .  A
C2087     Br2099   1.920       .  S
C2088      H2091   1.083       .  S
C2090      C2092   1.403       .  A
C2090      C2096   1.409       .  A
C2092      C2093   1.401       .  A
C2092      H2097   1.081       .  S
C2093      C2094   1.415       .  A
C2093     Br2101   1.921       .  S
C2094      C2095   1.407       .  A
C2095      C2096   1.404       .  A
C2095      H2098   1.081       .  S
C2096     Br2102   1.918       .  S
C2103      C2104   1.406       .  A
C2103      C2108   1.400       .  A
C2104      C2105   1.401       .  A
C2104     Br2120   1.918       .  S
C2105      C2106   1.406       .  A
C2105      H2109   1.083       .  S
C2106      C2110   1.482       .  S
C2106      C2107   1.410       .  A
C2107      C2108   1.397       .  A
C2107     Br2119   1.920       .  S
C2108      H2111   1.083       .  S
C2110      C2112   1.403       .  A
C2110      C2116   1.409       .  A
C2112      C2113   1.399       .  A
C2112      H2117   1.084       .  S
C2113      C2114   1.413       .  A
C2113     Br2121   1.920       .  S
C2114      C2115   1.406       .  A
C2115      C2116   1.398       .  A
C2115      H2118   1.084       .  S
C2116     Br2122   1.920       .  S
C2123      C2124   1.420       .  A
C2123      C2128   1.408       .  A
C2124      C2125   1.402       .  A
C2124     Br2140   1.922       .  S
C2125      C2126   1.401       .  A
C2125      H2129   1.084       .  S
C2126      C2130   1.486       .  S
C2126      C2127   1.409       .  A
C2127      C2128   1.400       .  A
C2127     Br2139   1.920       .  S
C2128      H2131   1.083       .  S
C2130      C2132   1.403       .  A
C2130      C2136   1.412       .  A
C2132      C2133   1.399       .  A
C2132      H2137   1.085       .  S
C2133      C2134   1.411       .  A
C2133     Br2141   1.920       .  S
C2134      C2135   1.403       .  A
C2135      C2136   1.403       .  A
C2135      H2138   1.086       .  S
C2136     Br2142   1.919       .  S
C2143      C2144   1.412       .  A
C2143      C2148   1.406       .  A
C2144      C2145   1.399       .  A
C2144     Br2160   1.920   1_545  S
C2145      C2146   1.402       .  A
C2145      H2149   1.083       .  S
C2146      C2150   1.479       .  S
C2146      C2147   1.408       .  A
C2147      C2148   1.401       .  A
C2147     Br2159   1.918       .  S
C2148      H2151   1.083       .  S
C2150      C2152   1.399       .  A
C2150      C2156   1.407       .  A
C2152      C2153   1.397       .  A
C2152      H2157   1.082       .  S
C2153      C2154   1.418       .  A
C2153     Br2161   1.924       .  S
C2154      C2155   1.407       .  A
C2155      C2156   1.403       .  A
C2155      H2158   1.081       .  S
C2156     Br2162   1.917   1_545  S
C2163      C2164   1.422       .  A
C2163      C2168   1.410       .  A
C2164      C2165   1.399       .  A
C2164     Br2180   1.922       .  S
C2165      C2166   1.398       .  A
C2165      H2169   1.083       .  S
C2166      C2170   1.477       .  S
C2166      C2167   1.405       .  A
C2167      C2168   1.399       .  A
C2167     Br2179   1.919       .  S
C2168      H2171   1.082       .  S
C2170      C2172   1.400       .  A
C2170      C2176   1.406       .  A
C2172      C2173   1.398       .  A
C2172      H2177   1.085       .  S
C2173      C2174   1.414       .  A
C2173     Br2181   1.921       .  S
C2174      C2175   1.406       .  A
C2175      C2176   1.399       .  A
C2175      H2178   1.084       .  S
C2176     Br2182   1.919       .  S
C2183      C2184   1.408       .  A
C2183      C2188   1.403       .  A
C2184      C2185   1.401       .  A
C2184     Br2200   1.918       .  S
C2185      C2186   1.403       .  A
C2185      H2189   1.082       .  S
C2186      C2190   1.480       .  S
C2186      C2187   1.408       .  A
C2187      C2188   1.402       .  A
C2187     Br2199   1.918       .  S
C2188      H2191   1.082       .  S
C2190      C2192   1.399       .  A
C2190      C2196   1.406       .  A
C2192      C2193   1.401       .  A
C2192      H2197   1.084       .  S
C2193      C2194   1.420       .  A
C2193     Br2201   1.922       .  S
C2194      C2195   1.408       .  A
C2195      C2196   1.400       .  A
C2195      H2198   1.084       .  S
C2196     Br2202   1.918       .  S
C2203      C2204   1.414       .  A
C2203      C2208   1.405       .  A
C2204      C2205   1.396       .  A
C2204     Br2220   1.922       .  S
C2205      C2206   1.399       .  A
C2205      H2209   1.082       .  S
C2206      C2210   1.475       .  S
C2206      C2207   1.407       .  A
C2207      C2208   1.402       .  A
C2207     Br2219   1.917       .  S
C2208      H2211   1.081       .  S
C2210      C2212   1.399       .  A
C2210      C2216   1.404       .  A
C2212      C2213   1.397       .  A
C2212      H2217   1.084       .  S
C2213      C2214   1.418       .  A
C2213     Br2221   1.923       .  S
C2214      C2215   1.409       .  A
C2215      C2216   1.401       .  A
C2215      H2218   1.083       .  S
C2216     Br2222   1.917       .  S
C2223      C2224   1.411       .  A
C2223      C2228   1.406       .  A
C2224      C2225   1.399       .  A
C2224     Br2240   1.920       .  S
C2225      C2226   1.401       .  A
C2225      H2229   1.083       .  S
C2226      C2230   1.475       .  S
C2226      C2227   1.406       .  A
C2227      C2228   1.399       .  A
C2227     Br2239   1.919       .  S
C2228      H2231   1.083       .  S
C2230      C2232   1.396       .  A
C2230      C2236   1.406       .  A
C2232      C2233   1.395       .  A
C2232      H2237   1.082       .  S
C2233      C2234   1.422       .  A
C2233     Br2241   1.925       .  S
C2234      C2235   1.408       .  A
C2235      C2236   1.402       .  A
C2235      H2238   1.081       .  S
C2236     Br2242   1.918       .  S
C2243      C2244   1.418       .  A
C2243      C2248   1.407       .  A
C2244      C2245   1.406       .  A
C2244     Br2260   1.920   1_455  S
C2245      C2246   1.404       .  A
C2245      H2249   1.084       .  S
C2246      C2250   1.486       .  S
C2246      C2247   1.407       .  A
C2247      C2248   1.397       .  A
C2247     Br2259   1.920       .  S
C2248      H2251   1.083       .  S
C2250      C2252   1.402       .  A
C2250      C2256   1.409       .  A
C2252      C2253   1.402       .  A
C2252      H2257   1.081       .  S
C2253      C2254   1.416       .  A
C2253     Br2261   1.921       .  S
C2254      C2255   1.408       .  A
C2255      C2256   1.403       .  A
C2255      H2258   1.081       .  S
C2256     Br2262   1.919       .  S
C2263      C2264   1.417       .  A
C2263      C2268   1.408       .  A
C2264      C2265   1.405       .  A
C2264     Br2280   1.920       .  S
C2265      C2266   1.402       .  A
C2265      H2269   1.083       .  S
C2266      C2270   1.484       .  S
C2266      C2267   1.405       .  A
C2267      C2268   1.399       .  A
C2267     Br2279   1.918       .  S
C2268      H2271   1.083       .  S
C2270      C2272   1.399       .  A
C2270      C2276   1.405       .  A
C2272      C2273   1.401       .  A
C2272      H2277   1.083       .  S
C2273      C2274   1.422       .  A
C2273     Br2281   1.923       .  S
C2274      C2275   1.411       .  A
C2275      C2276   1.404       .  A
C2275      H2278   1.082       .  S
C2276     Br2282   1.917       .  S
C2283      C2284   1.413       .  A
C2283      C2288   1.404       .  A
C2284      C2285   1.398       .  A
C2284     Br2300   1.921       .  S
C2285      C2286   1.400       .  A
C2285      H2289   1.084       .  S
C2286      C2290   1.478       .  S
C2286      C2287   1.408       .  A
C2287      C2288   1.402       .  A
C2287     Br2299   1.917       .  S
C2288      H2291   1.084       .  S
C2290      C2292   1.399       .  A
C2290      C2296   1.404       .  A
C2292      C2293   1.400       .  A
C2292      H2297   1.081       .  S
C2293      C2294   1.421       .  A
C2293     Br2301   1.924   1_545  S
C2294      C2295   1.409       .  A
C2295      C2296   1.401       .  A
C2295      H2298   1.080       .  S
C2296     Br2302   1.917       .  S
C2303      C2304   1.421       .  A
C2303      C2308   1.410       .  A
C2304      C2305   1.400       .  A
C2304     Br2320   1.923   1_545  S
C2305      C2306   1.401       .  A
C2305      H2309   1.084       .  S
C2306      C2310   1.481       .  S
C2306      C2307   1.405       .  A
C2307      C2308   1.398       .  A
C2307     Br2319   1.919       .  S
C2308      H2311   1.083   1_655  S
C2310      C2312   1.402       .  A
C2310      C2316   1.404       .  A
C2312      C2313   1.401       .  A
C2312      H2317   1.084       .  S
C2313      C2314   1.421       .  A
C2313     Br2321   1.923       .  S
C2314      C2315   1.412       .  A
C2315      C2316   1.397       .  A
C2315      H2318   1.083       .  S
C2316     Br2322   1.920       .  S
C2323      C2324   1.417       .  A
C2323      C2328   1.410       .  A
C2324      C2325   1.401       .  A
C2324     Br2340   1.921       .  S
C2325      C2326   1.404       .  A
C2325      H2329   1.084       .  S
C2326      C2330   1.491       .  S
C2326      C2327   1.409       .  A
C2327      C2328   1.402       .  A
C2327     Br2339   1.920       .  S
C2328      H2331   1.084       .  S
C2330      C2332   1.407       .  A
C2330      C2336   1.412       .  A
C2332      C2333   1.405       .  A
C2332      H2337   1.083       .  S
C2333      C2334   1.411       .  A
C2333     Br2341   1.919       .  S
C2334      C2335   1.403       .  A
C2335      C2336   1.398       .  A
C2335      H2338   1.084       .  S
C2336     Br2342   1.921       .  S
C2343      C2344   1.409       .  A
C2343      C2348   1.402       .  A
C2344      C2345   1.403       .  A
C2344     Br2360   1.918       .  S
C2345      C2346   1.405       .  A
C2345      H2349   1.084       .  S
C2346      C2350   1.485       .  S
C2346      C2347   1.411       .  A
C2347      C2348   1.397       .  A
C2347     Br2359   1.921       .  S
C2348      H2351   1.085       .  S
C2350      C2352   1.403       .  A
C2350      C2356   1.411       .  A
C2352      C2353   1.397       .  A
C2352      H2357   1.084       .  S
C2353      C2354   1.411       .  A
C2353     Br2361   1.922       .  S
C2354      C2355   1.404       .  A
C2355      C2356   1.403       .  A
C2355      H2358   1.084       .  S
C2356     Br2362   1.918       .  S
C2363      C2364   1.416       .  A
C2363      C2368   1.408       .  A
C2364      C2365   1.401       .  A
C2364     Br2380   1.920       .  S
C2365      C2366   1.402       .  A
C2365      H2369   1.084       .  S
C2366      C2370   1.484       .  S
C2366      C2367   1.407       .  A
C2367      C2368   1.401       .  A
C2367     Br2379   1.919       .  S
C2368      H2371   1.084       .  S
C2370      C2372   1.403       .  A
C2370      C2376   1.408       .  A
C2372      C2373   1.401       .  A
C2372      H2377   1.084       .  S
C2373      C2374   1.414       .  A
C2373     Br2381   1.920       .  S
C2374      C2375   1.406       .  A
C2375      C2376   1.399       .  A
C2375      H2378   1.084       .  S
C2376     Br2382   1.919       .  S
C2383      C2384   1.415       .  A
C2383      C2388   1.405       .  A
C2384      C2385   1.400       .  A
C2384     Br2400   1.922       .  S
C2385      C2386   1.401       .  A
C2385      H2389   1.084       .  S
C2386      C2390   1.479       .  S
C2386      C2387   1.407       .  A
C2387      C2388   1.401       .  A
C2387     Br2399   1.918       .  S
C2388      H2391   1.083       .  S
C2390      C2392   1.402       .  A
C2390      C2396   1.404       .  A
C2392      C2393   1.405       .  A
C2392      H2397   1.083       .  S
C2393      C2394   1.419       .  A
C2393     Br2401   1.921       .  S
C2394      C2395   1.409       .  A
C2395      C2396   1.395       .  A
C2395      H2398   1.083       .  S
C2396     Br2402   1.920       .  S
C2403      C2404   1.417       .  A
C2403      C2408   1.407       .  A
C2404      C2405   1.400       .  A
C2404     Br2420   1.921       .  S
C2405      C2406   1.400       .  A
C2405      H2409   1.084       .  S
C2406      C2410   1.486       .  S
C2406      C2407   1.409       .  A
C2407      C2408   1.403       .  A
C2407     Br2419   1.918       .  S
C2408      H2411   1.084       .  S
C2410      C2412   1.402       .  A
C2410      C2416   1.409       .  A
C2412      C2413   1.404       .  A
C2412      H2417   1.081       .  S
C2413      C2414   1.416       .  A
C2413     Br2421   1.920       .  S
C2414      C2415   1.408       .  A
C2415      C2416   1.401       .  A
C2415      H2418   1.081       .  S
C2416     Br2422   1.920       .  S
C2423      C2424   1.415       .  A
C2423      C2428   1.407       .  A
C2424      C2425   1.399       .  A
C2424     Br2440   1.921       .  S
C2425      C2426   1.400       .  A
C2425      H2429   1.084       .  S
C2426      C2430   1.481       .  S
C2426      C2427   1.408       .  A
C2427      C2428   1.403       .  A
C2427     Br2439   1.919       .  S
C2428      H2431   1.083       .  S
C2430      C2432   1.403       .  A
C2430      C2436   1.408       .  A
C2432      C2433   1.402       .  A
C2432      H2437   1.081       .  S
C2433      C2434   1.413       .  A
C2433     Br2441   1.921       .  S
C2434      C2435   1.403       .  A
C2435      C2436   1.400       .  A
C2435      H2438   1.081       .  S
C2436     Br2442   1.919       .  S
C2443      C2444   1.417       .  A
C2443      C2448   1.407       .  A
C2444      C2445   1.400       .  A
C2444     Br2460   1.922       .  S
C2445      C2446   1.401       .  A
C2445      H2449   1.082       .  S
C2446      C2450   1.479       .  S
C2446      C2447   1.407       .  A
C2447      C2448   1.400       .  A
C2447     Br2459   1.919       .  S
C2448      H2451   1.083       .  S
C2450      C2452   1.401       .  A
C2450      C2456   1.408       .  A
C2452      C2453   1.398       .  A
C2452      H2457   1.083       .  S
C2453      C2454   1.412       .  A
C2453     Br2461   1.920   1_655  S
C2454      C2455   1.406       .  A
C2455      C2456   1.401       .  A
C2455      H2458   1.083       .  S
C2456     Br2462   1.919       .  S
C2463      C2464   1.410       .  A
C2463      C2468   1.404       .  A
C2464      C2465   1.402       .  A
C2464     Br2480   1.919       .  S
C2465      C2466   1.405       .  A
C2465      H2469   1.083       .  S
C2466      C2470   1.487       .  S
C2466      C2467   1.410       .  A
C2467      C2468   1.401       .  A
C2467     Br2479   1.919       .  S
C2468      H2471   1.084       .  S
C2470      C2472   1.403       .  A
C2470      C2476   1.406       .  A
C2472      C2473   1.402       .  A
C2472      H2477   1.084       .  S
C2473      C2474   1.418       .  A
C2473     Br2481   1.921       .  S
C2474      C2475   1.410       .  A
C2475      C2476   1.401       .  A
C2475      H2478   1.083       .  S
C2476     Br2482   1.919       .  S
C2483      C2484   1.415       .  A
C2483      C2488   1.406       .  A
C2484      C2485   1.397       .  A
C2484     Br2500   1.922       .  S
C2485      C2486   1.399       .  A
C2485      H2489   1.083       .  S
C2486      C2490   1.466       .  S
C2486      C2487   1.402       .  A
C2487      C2488   1.394       .  A
C2487     Br2499   1.918       .  S
C2488      H2491   1.083       .  S
C2490      C2492   1.401       .  A
C2490      C2496   1.406       .  A
C2492      C2493   1.397       .  A
C2492      H2497   1.084       .  S
C2493      C2494   1.408       .  A
C2493     Br2501   1.918       .  S
C2494      C2495   1.401       .  A
C2495      C2496   1.394       .  A
C2495      H2498   1.084       .  S
C2496     Br2502   1.919       .  S
C2503      C2504   1.410       .  A
C2503      C2508   1.403       .  A
C2504      C2505   1.399       .  A
C2504     Br2520   1.920       .  S
C2505      C2506   1.403       .  A
C2505      H2509   1.085       .  S
C2506      C2510   1.475       .  S
C2506      C2507   1.407       .  A
C2507      C2508   1.395       .  A
C2507     Br2519   1.920       .  S
C2508      H2511   1.084       .  S
C2510      C2512   1.398       .  A
C2510      C2516   1.403       .  A
C2512      C2513   1.398       .  A
C2512      H2517   1.084       .  S
C2513      C2514   1.423       .  A
C2513     Br2521   1.924       .  S
C2514      C2515   1.411       .  A
C2515      C2516   1.397       .  A
C2515      H2518   1.083       .  S
C2516     Br2522   1.919       .  S
C2523      C2524   1.418       .  A
C2523      C2528   1.408       .  A
C2524      C2525   1.401       .  A
C2524     Br2540   1.923       .  S
C2525      C2526   1.400       .  A
C2525      H2529   1.081       .  S
C2526      C2530   1.485       .  S
C2526      C2527   1.408       .  A
C2527      C2528   1.405       .  A
C2527     Br2539   1.917       .  S
C2528      H2531   1.081       .  S
C2530      C2532   1.401       .  A
C2530      C2536   1.407       .  A
C2532      C2533   1.402       .  A
C2532      H2537   1.083       .  S
C2533      C2534   1.418       .  A
C2533     Br2541   1.921       .  S
C2534      C2535   1.409       .  A
C2535      C2536   1.404       .  A
C2535      H2538   1.083       .  S
C2536     Br2542   1.918       .  S
C2543      C2544   1.417       .  A
C2543      C2548   1.410       .  A
C2544      C2545   1.396       .  A
C2544     Br2560   1.922       .  S
C2545      C2546   1.400       .  A
C2545      H2549   1.083       .  S
C2546      C2550   1.478       .  S
C2546      C2547   1.405       .  A
C2547      C2548   1.400       .  A
C2547     Br2559   1.919       .  S
C2548      H2551   1.081       .  S
C2550      C2552   1.403       .  A
C2550      C2556   1.408       .  A
C2552      C2553   1.400       .  A
C2552      H2557   1.085       .  S
C2553      C2554   1.411       .  A
C2553     Br2561   1.920       .  S
C2554      C2555   1.402       .  A
C2555      C2556   1.395       .  A
C2555      H2558   1.085       .  S
C2556     Br2562   1.920       .  S
C2563      C2564   1.418       .  A
C2563      C2568   1.406       .  A
C2564      C2565   1.401       .  A
C2564     Br2580   1.922       .  S
C2565      C2566   1.400       .  A
C2565      H2569   1.083       .  S
C2566      C2570   1.481       .  S
C2566      C2567   1.407       .  A
C2567      C2568   1.400       .  A
C2567     Br2579   1.919       .  S
C2568      H2571   1.083       .  S
C2570      C2572   1.400       .  A
C2570      C2576   1.409       .  A
C2572      C2573   1.398       .  A
C2572      H2577   1.085       .  S
C2573      C2574   1.413       .  A
C2573     Br2581   1.920       .  S
C2574      C2575   1.404       .  A
C2575      C2576   1.403       .  A
C2575      H2578   1.084       .  S
C2576     Br2582   1.917       .  S
C2583      C2584   1.419       .  A
C2583      C2588   1.408   1_545  A
C2584      C2585   1.405       .  A
C2584     Br2600   1.920       .  S
C2585      C2586   1.401   1_545  A
C2585      H2589   1.084       .  S
C2586      C2590   1.480       .  S
C2586      C2587   1.405       .  A
C2587      C2588   1.397       .  A
C2587     Br2599   1.920       .  S
C2588      H2591   1.083       .  S
C2590      C2592   1.400       .  A
C2590      C2596   1.406       .  A
C2592      C2593   1.401       .  A
C2592      H2597   1.083       .  S
C2593      C2594   1.415       .  A
C2593     Br2601   1.920       .  S
C2594      C2595   1.407       .  A
C2595      C2596   1.401       .  A
C2595      H2598   1.082       .  S
C2596     Br2602   1.918   1_565  S
C2603      C2604   1.416       .  A
C2603      C2608   1.406       .  A
C2604      C2605   1.404       .  A
C2604     Br2620   1.919       .  S
C2605      C2606   1.403       .  A
C2605      H2609   1.085       .  S
C2606      C2610   1.481       .  S
C2606      C2607   1.405       .  A
C2607      C2608   1.396       .  A
C2607     Br2619   1.919       .  S
C2608      H2611   1.084       .  S
C2610      C2612   1.399       .  A
C2610      C2616   1.406       .  A
C2612      C2613   1.397       .  A
C2612      H2617   1.084       .  S
C2613      C2614   1.419       .  A
C2613     Br2621   1.924       .  S
C2614      C2615   1.409       .  A
C2615      C2616   1.404       .  A
C2615      H2618   1.083       .  S
C2616     Br2622   1.917       .  S
C2623      C2624   1.418       .  A
C2623      C2628   1.407       .  A
C2624      C2625   1.403       .  A
C2624     Br2640   1.921       .  S
C2625      C2626   1.402       .  A
C2625      H2629   1.085       .  S
C2626      C2630   1.485       .  S
C2626      C2627   1.407       .  A
C2627      C2628   1.400       .  A
C2627     Br2639   1.918       .  S
C2628      H2631   1.085       .  S
C2630      C2632   1.400       .  A
C2630      C2636   1.407       .  A
C2632      C2633   1.400       .  A
C2632      H2637   1.084       .  S
C2633      C2634   1.421       .  A
C2633     Br2641   1.923       .  S
C2634      C2635   1.409       .  A
C2635      C2636   1.404       .  A
C2635      H2638   1.083       .  S
C2636     Br2642   1.917       .  S
C2643      C2644   1.409       .  A
C2643      C2648   1.403       .  A
C2644      C2645   1.399       .  A
C2644     Br2660   1.919       .  S
C2645      C2646   1.403       .  A
C2645      H2649   1.084       .  S
C2646      C2650   1.485       .  S
C2646      C2647   1.411       .  A
C2647      C2648   1.403       .  A
C2647     Br2659   1.919       .  S
C2648      H2651   1.084       .  S
C2650      C2652   1.404       .  A
C2650      C2656   1.410       .  A
C2652      C2653   1.401       .  A
C2652      H2657   1.083       .  S
C2653      C2654   1.412       .  A
C2653     Br2661   1.920       .  S
C2654      C2655   1.405       .  A
C2655      C2656   1.400       .  A
C2655      H2658   1.082   1_545  S
C2656     Br2662   1.920       .  S
C2663      C2664   1.417       .  A
C2663      C2668   1.409       .  A
C2664      C2665   1.402       .  A
C2664     Br2680   1.921       .  S
C2665      C2666   1.402       .  A
C2665      H2669   1.083       .  S
C2666      C2670   1.485       .  S
C2666      C2667   1.406       .  A
C2667      C2668   1.403       .  A
C2667     Br2679   1.918       .  S
C2668      H2671   1.083       .  S
C2670      C2672   1.403       .  A
C2670      C2676   1.408       .  A
C2672      C2673   1.404       .  A
C2672      H2677   1.083       .  S
C2673      C2674   1.413       .  A
C2673     Br2681   1.919       .  S
C2674      C2675   1.404       .  A
C2675      C2676   1.401       .  A
C2675      H2678   1.083       .  S
C2676     Br2682   1.919       .  S
