geometry optimzed in LAMMPS
_audit_creation_date              2020-11-30 
_audit_creation_method            'lammps2cif' 
_symmetry_space_group_name_H-M    'P1' 
_symmetry_Int_Tables_number       1 
_symmetry_cell_setting            triclinic 
loop_ 
_symmetry_equiv_pos_as_xyz 
  x,y,z 
_cell_length_a                    40.73637708384497 
_cell_length_b                    40.719974459790926 
_cell_length_c                    40.67412140910383 
_cell_angle_alpha                 86.97673288749075 
_cell_angle_beta                  86.9702628465138 
_cell_angle_gamma                 92.66005943699396 
loop_ 
_atom_site_label 
_atom_site_type_symbol 
_atom_site_fract_x 
_atom_site_fract_y 
_atom_site_fract_z 
_atom_site_charge 
C1          C  0.10174760  0.27147092  0.52311263     0.02720
C2          C  0.13386304  0.26741527  0.03384233    -0.13430
C3          C  0.14841399  0.23663098  0.03298644     0.00220
C4          C  0.12927953  0.20927741  0.02386548    -0.11960
C5          C  0.09654710  0.21264305  0.51503700     0.02710
C6          C  0.08434739  0.24407770  0.51168485    -0.11380
H7          H  0.14732898  0.28790823  0.04365425     0.08310
H8          H  0.13900772  0.18497298  0.02584587     0.05840
H9          H  0.05945617  0.24651600  0.50403803     0.05680
C10         C  0.32864916  0.19643710  0.09509189     0.02720
C11         C  0.34384996  0.22562763  0.10505410    -0.13430
C12         C  0.33081746  0.25610647  0.09763950     0.00220
C13         C  0.29958202  0.25730509  0.08463811    -0.11960
C14         C  0.28249405  0.22820647  0.07669250     0.02710
C15         C  0.29781991  0.19792052  0.08088077    -0.11380
H16         H  0.36778175  0.22498702  0.11547458     0.08310
H17         H  0.28919688  0.28094262  0.07956049     0.05840
H18         H  0.28584857  0.17566908  0.07282271     0.05680
C19         C  0.17246960  0.45359060  0.20427773     0.02720
C20         C  0.17642483  0.47327369  0.23119775    -0.13430
C21         C  0.20805433  0.48041766  0.24158618     0.00220
C22         C  0.23534295  0.47156800  0.22209463    -0.11960
C23         C  0.23185799  0.44975058  0.19622889     0.02710
C24         C  0.19975582  0.43848881  0.19030796    -0.11380
H25         H  0.15522279  0.48305106  0.24379277     0.08310
H26         H  0.25932252  0.48132119  0.22801565     0.05840
H27         H  0.19520809  0.41961473  0.17341055     0.05680
C28         C  0.25407837  0.02982878  0.42325789     0.02960
C29         C  0.22433019  0.03165865  0.44188292    -0.13430
C30         C  0.19417093  0.03004101  0.42689841     0.00220
C31         C  0.19414991  0.02809015  0.39237003    -0.11960
C32         C  0.22367140  0.02493030  0.37345135     0.02710
C33         C  0.25370298  0.02626564  0.38904379    -0.11380
H34         H  0.22460114  0.03168003  0.46852614     0.08310
H35         H  0.17091195  0.02590430  0.38066592     0.05840
H36         H  0.27643447  0.02239974  0.37503528     0.05680
C37         C  0.99535057  0.11881088  0.27504627     0.02720
C38         C  0.97995511  0.14903761  0.27754867    -0.13430
C39         C  0.97575920  0.16314115  0.30820307     0.00220
C40         C  0.98291405  0.14501227  0.33694283    -0.11960
C41         C  0.99635151  0.11412675  0.33484286     0.02710
C42         C  0.00583095  0.10311731  0.30398753    -0.11380
H43         H  0.97090347  0.16157348  0.25598917     0.08310
H44         H  0.97673888  0.15427107  0.36088208     0.05840
H45         H  0.01826281  0.08023713  0.30284115     0.05680
C46         C  0.42830084  0.34150544  0.35824670     0.02720
C47         C  0.42950220  0.30749959  0.35432915    -0.13430
C48         C  0.43303078  0.29551922  0.32270197     0.00220
C49         C  0.43177485  0.31733820  0.29498908    -0.11960
C50         C  0.43205353  0.35166785  0.29830400     0.02710
C51         C  0.43104770  0.36335823  0.33017744    -0.11380
H52         H  0.42940056  0.29055350  0.37578821     0.08310
H53         H  0.43328845  0.30766739  0.27067182     0.05840
H54         H  0.43315938  0.38960186  0.33335165     0.05680
O55         O  0.02736738  0.41276986  0.01573571    -0.80540
O56         O  0.43317252  0.46309994  0.17073484    -0.82090
O57         O  0.03521490  0.43437518  0.12587401    -0.79110
O58         O  0.44307829  0.38044826  0.09968118    -0.77500
O59         O  0.39916975  0.39454902  0.06986818    -0.79290
O60         O  0.05564904  0.48728742  0.11495703    -0.80220
O61         O  0.46586858  0.42316449  0.15426141    -0.81550
O62         O  0.01849724  0.39294004  0.06926320    -0.81840
Eu63       Eu  0.48292815  0.42944734  0.09733921     2.39200
O64         O  0.42983311  0.44928980  0.10034134    -0.89350
O65         O  0.01817185  0.46314892  0.06093137    -0.92950
C66         C  0.03108270  0.39128808  0.03983905     1.01740
C67         C  0.44806641  0.43589037  0.17629671     1.01560
C68         C  0.05702668  0.45811418  0.12838846     1.01500
C69         C  0.41471593  0.37417290  0.08763562     0.99360
H70         H  0.49370736  0.48243643  0.13837027     0.29110
O71         O  0.48505009  0.48276822  0.11671488    -1.01730
H72         H  0.46049519  0.40727929  0.03766934     0.29140
O73         O  0.46130277  0.42945669  0.04502969    -1.04270
O74         O  0.40415857  0.05553475  0.11517481    -0.81500
O75         O  0.49447192  0.50104957  0.45851690    -0.81040
O76         O  0.01470363  0.04856449  0.13062936    -0.79480
O77         O  0.36081641  0.44849753  0.08947974    -0.82820
O78         O  0.41311559  0.41970263  0.99646563    -0.80670
O79         O  0.06845632  0.01581698  0.03928911    -0.79320
O80         O  0.48511070  0.08711305  0.02676956    -0.80840
O81         O  0.39264949  0.03209812  0.00122856    -0.82760
O82         O  0.02948411  0.07122620  0.05427722    -0.79500
O83         O  0.37037690  0.48117506  0.01558161    -0.82180
O84         O  0.46267943  0.03776754  0.15425033    -0.77910
O85         O  0.05070727  0.48760794  0.99654765    -0.77950
O86         O  0.46546653  0.42926062  0.47351791    -0.77590
O87         O  0.37426538  0.48297293  0.12925526    -0.81090
O88         O  0.41196216  0.07492783  0.06131876    -0.80510
O89         O  0.46408151  0.04474458  0.47242307    -0.78840
Eu90       Eu  0.43155646  0.50228880  0.12008873     2.39770
Eu91       Eu  0.49589717  0.46396408  0.00880391     2.39570
Eu92       Eu  0.01955498  0.01680784  0.07970183     2.38400
Eu93       Eu  0.40826537  0.45047684  0.04797569     2.39880
Eu94       Eu  0.44497308  0.03806369  0.03005739     2.39790
O95         O  0.44265743  0.48443930  0.01099303    -0.93260
O96         O  0.46612971  0.03685923  0.08297542    -0.92150
C97         C  0.40071965  0.07716512  0.09124560     1.01910
C98         C  0.48156737  0.02892545  0.45190057     1.00630
C99         C  0.49183765  0.05136577  0.15361597     1.00020
C100        C  0.35416377  0.46255635  0.11671981     1.02040
C101        C  0.43637727  0.41557520  0.47421548     1.00950
C102        C  0.07284802  0.50458972  0.01014224     0.99800
C103        C  0.01438782  0.09242583  0.03721403     0.99860
C104        C  0.36943876  0.00940399  0.00024852     1.02470
H105        H  0.01130977  0.03112383  0.01244037     0.29850
O106        O  0.49743715  0.01713427  0.02780987    -1.05420
H107        H  0.38836247  0.01211960  0.06833892     0.31900
O108        O  0.41026192  0.50396560  0.06714897    -1.07980
C109        C  0.42669557  0.42604826  0.23689677    -0.02260
C110        C  0.44523453  0.41609272  0.20900170     0.07420
C111        C  0.46152611  0.38561924  0.21281769    -0.02370
C112        C  0.46113829  0.36872311  0.24375677    -0.02370
C113        C  0.43717758  0.37498034  0.26849353     0.07560
C114        C  0.41913083  0.40365369  0.26426262    -0.02570
Br115      Br  0.38226060  0.41196145  0.29376928    -0.01120
Br116      Br  0.41581736  0.47102473  0.24149267    -0.01190
Br117      Br  0.49621337  0.33953831  0.25268911    -0.01150
Br118      Br  0.48350080  0.36312541  0.17733482    -0.01130
C119        C  0.45256337  0.35077858  0.41287232    -0.02260
C120        C  0.42685097  0.35523377  0.39139237     0.07420
C121        C  0.40182617  0.37665094  0.39972277    -0.02370
C122        C  0.40502448  0.39698805  0.42634818    -0.02370
C123        C  0.43068512  0.39271766  0.44775400     0.07560
C124        C  0.45371130  0.36851103  0.44153330    -0.02570
Br125      Br  0.48806968  0.36025296  0.47143802    -0.01120
Br126      Br  0.48801025  0.32263791  0.40237855    -0.01190
Br127      Br  0.37797075  0.43421333  0.42939527    -0.01150
Br128      Br  0.36270061  0.37769529  0.37511112    -0.01130
C129        C  0.49538019  0.05098470  0.21382371    -0.02260
C130        C  0.49905914  0.06905991  0.18336567     0.07420
C131        C  0.00239079  0.10363493  0.18302429    -0.02370
C132        C  0.00603106  0.11936374  0.21274442    -0.02370
C133        C  0.99770359  0.10174411  0.24330159     0.07560
C134        C  0.99040097  0.06727259  0.24304471    -0.02570
Br135      Br  0.96806711  0.04216159  0.28012091    -0.01120
Br136      Br  0.49565415  0.50354908  0.21529400    -0.01190
Br137      Br  0.02400938  0.16419632  0.21047534    -0.01150
Br138      Br  0.49524765  0.12995310  0.14373165    -0.01130
C139        C  0.01833198  0.05805526  0.40718691    -0.02260
C140        C  0.48681270  0.04509841  0.41866562     0.07420
C141        C  0.45904272  0.05326860  0.40132043    -0.02370
C142        C  0.46238691  0.07590225  0.37400865    -0.02370
C143        C  0.99365443  0.09032623  0.36363908     0.07560
C144        C  0.02176040  0.08054563  0.37953267    -0.02570
Br145      Br  0.06459935  0.09924885  0.36435640    -0.01120
Br146      Br  0.05647455  0.54723730  0.43071642    -0.01190
Br147      Br  0.42384265  0.08704087  0.35083524    -0.01150
Br148      Br  0.41618214  0.03346851  0.41527763    -0.01130
C149        C  0.43084191  0.20363495  0.30870760    -0.02260
C150        C  0.46439281  0.19701828  0.31054759     0.07420
C151        C  0.98750478  0.22274799  0.31578110    -0.02370
C152        C  0.47712287  0.25483627  0.31961832    -0.02370
C153        C  0.44344835  0.26145902  0.31849016     0.07560
C154        C  0.42038830  0.23583667  0.31269630    -0.02570
Br155      Br  0.37456614  0.24498998  0.31052888    -0.01120
Br156      Br  0.39928125  0.16843293  0.30136715    -0.01190
Br157      Br  0.00946399  0.28972641  0.32585141    -0.01150
Br158      Br  0.03366869  0.21399284  0.31721694    -0.01130
C159        C  0.15317642  0.04724897  0.47108449    -0.02260
C160        C  0.16306346  0.02441277  0.44800978     0.07420
C161        C  0.14392017  0.99499890  0.44601620    -0.02370
C162        C  0.11396539  0.98951269  0.46463868    -0.02370
C163        C  0.10469121  0.01125850  0.48971036     0.07560
C164        C  0.12474414  0.04043021  0.99241569    -0.02570
Br165      Br  0.11232422  0.07326454  0.02270716    -0.01120
Br166      Br  0.17799456  0.08871262  0.97248245    -0.01190
Br167      Br  0.08586701  0.45288797  0.45189795    -0.01150
Br168      Br  0.15959972  0.96037537  0.41930260    -0.01130
C169        C  0.33323297  0.04719021  0.46656666    -0.02260
C170        C  0.33977357  0.01518892  0.48010695     0.07420
C171        C  0.31704486  0.48838591  0.47416841    -0.02370
C172        C  0.28977915  0.99360103  0.45505850    -0.02370
C173        C  0.28446753  0.02495356  0.44104583     0.07560
C174        C  0.30602241  0.05167349  0.44682996    -0.02570
Br175      Br  0.29708038  0.09480937  0.42836388    -0.01120
Br176      Br  0.35911566  0.08626965  0.97609237    -0.01190
Br177      Br  0.25834974  0.45755856  0.44873571    -0.01150
Br178      Br  0.32055996  0.44343554  0.49167004    -0.01130
C179        C  0.11716465  0.46559972  0.13384594    -0.02260
C180        C  0.08639595  0.45265250  0.14749400     0.07420
C181        C  0.08376638  0.43987607  0.18061411    -0.02370
C182        C  0.11196972  0.43913374  0.19935559    -0.02370
C183        C  0.14206677  0.45378186  0.18596948     0.07560
C184        C  0.14388756  0.46871164  0.15381340    -0.02570
Br185      Br  0.18136810  0.49735189  0.13831789    -0.01120
Br186      Br  0.12343601  0.47857360  0.08737652    -0.01190
Br187      Br  0.10925883  0.41904263  0.24347568    -0.01150
Br188      Br  0.04155841  0.42610933  0.20145329    -0.01130
C189        C  0.29225197  0.44276390  0.18963200    -0.02260
C190        C  0.26180370  0.44157141  0.17504402     0.07420
C191        C  0.26255185  0.43967971  0.13995505    -0.02370
C192        C  0.29289493  0.44446268  0.12100985    -0.02370
C193        C  0.32208704  0.45411358  0.13616330     0.07560
C194        C  0.32051069  0.45457451  0.17107090    -0.02570
Br195      Br  0.35251568  0.47750299  0.19532341    -0.01120
Br196      Br  0.29595398  0.42701474  0.23502187    -0.01190
Br197      Br  0.29286358  0.44143855  0.07386700    -0.01150
Br198      Br  0.22404998  0.42915302  0.11596843    -0.01130
C199        C  0.21870920  0.03753564  0.31237238    -0.02260
C200        C  0.22221695  0.01442904  0.33893339     0.07420
C201        C  0.22228398  0.48060692  0.33286497    -0.02370
C202        C  0.21681726  0.46987032  0.30122153    -0.02370
C203        C  0.21285042  0.49285807  0.27478742     0.07560
C204        C  0.21446856  0.02678050  0.28025473    -0.02570
Br205      Br  0.21115368  0.05821709  0.24366015    -0.01120
Br206      Br  0.22050798  0.08383749  0.32003218    -0.01190
Br207      Br  0.21395453  0.42325660  0.29414790    -0.01150
Br208      Br  0.23040190  0.44856150  0.36761435    -0.01130
C209        C  0.39806828  0.13778933  0.08400132    -0.02260
C210        C  0.38345575  0.10764889  0.09743762     0.07420
C211        C  0.35124290  0.10683320  0.11208987    -0.02370
C212        C  0.33365304  0.13597550  0.11258591    -0.02370
C213        C  0.34722357  0.16554898  0.09629862     0.07560
C214        C  0.37958406  0.16590241  0.08161570    -0.02570
Br215      Br  0.39867385  0.20356588  0.05528136    -0.01120
Br216      Br  0.44414872  0.14101480  0.06920045    -0.01190
Br217      Br  0.29156379  0.13512402  0.13655991    -0.01150
Br218      Br  0.33044743  0.06562121  0.12981247    -0.01130
C219        C  0.36033157  0.30224610  0.12514465    -0.02260
C220        C  0.35321131  0.28591714  0.09642476     0.07420
C221        C  0.36942560  0.29662576  0.06603541    -0.02370
C222        C  0.39171883  0.32396342  0.06410476    -0.02370
C223        C  0.39818857  0.34111694  0.09246049     0.07560
C224        C  0.38256158  0.33010916  0.12311552    -0.02570
Br225      Br  0.38947616  0.35475081  0.16154296    -0.01120
Br226      Br  0.33852547  0.28719518  0.16676002    -0.01190
Br227      Br  0.41225466  0.33883081  0.02177797    -0.01150
Br228      Br  0.36103200  0.27422442  0.02644403    -0.01130
C229        C  0.05125417  0.13804399  0.05589699    -0.02260
C230        C  0.03281226  0.12483866  0.03058109     0.07420
C231        C  0.03478312  0.14185320  0.99910298    -0.02370
C232        C  0.05619518  0.17033738  0.49309107    -0.02370
C233        C  0.07284524  0.18366371  0.01928223     0.07560
C234        C  0.06680566  0.16917255  0.05116245    -0.02570
Br235      Br  0.07554060  0.19345884  0.08939503    -0.01120
Br236      Br  0.06082930  0.11347913  0.09601804    -0.01190
Br237      Br  0.06276155  0.19104881  0.44941689    -0.01150
Br238      Br  0.51120392  0.12473851  0.46337102    -0.01130
C239        C  0.08248424  0.36301494  0.02170951    -0.02260
C240        C  0.04944072  0.36126879  0.03400956     0.07420
C241        C  0.03447477  0.33028351  0.04453815    -0.02370
C242        C  0.05240325  0.30172833  0.04325868    -0.02370
C243        C  0.08435793  0.30281660  0.02738995     0.07560
C244        C  0.09901508  0.33391141  0.01606614    -0.02570
Br245      Br  0.14089817  0.33741659  0.99143003    -0.01120
Br246      Br  0.10679789  0.40478305  0.01776009    -0.01190
Br247      Br  0.03319604  0.26222027  0.06648463    -0.01150
Br248      Br  0.48905402  0.32639950  0.06142192    -0.01130
C249        C  0.18962269  0.21434125  0.07238526    -0.02260
C250        C  0.18299000  0.23295046  0.04330095     0.07420
C251        C  0.20973111  0.24873358  0.02420302    -0.02370
C252        C  0.24225935  0.24667829  0.03446680    -0.02370
C253        C  0.24850228  0.22942276  0.06444171     0.07560
C254        C  0.22181049  0.21366170  0.08343554    -0.02570
Br255      Br  0.22872768  0.19322609  0.12629857    -0.01120
Br256      Br  0.15536149  0.18920405  0.09786548    -0.01190
Br257      Br  0.27809105  0.26688919  0.00665917    -0.01150
Br258      Br  0.20203676  0.27175807  0.98282078    -0.01130
C259        C  0.10174710  0.27147304  0.02311389     0.02720
C260        C  0.13386355  0.26741288  0.53384091    -0.13430
C261        C  0.14841419  0.23662844  0.53298489     0.00220
C262        C  0.12927948  0.20927513  0.52386382    -0.11960
C263        C  0.09654719  0.21264500  0.01503830     0.02710
C264        C  0.08434726  0.24407960  0.01168597    -0.11380
H265        H  0.14732973  0.28790575  0.54365273     0.08310
H266        H  0.13900749  0.18497061  0.52584394     0.05840
H267        H  0.05945613  0.24651769  0.00403882     0.05680
C268        C  0.32864953  0.19643502  0.59509094     0.02720
C269        C  0.34384990  0.22562588  0.60505298    -0.13430
C270        C  0.33081712  0.25610451  0.59763790     0.00220
C271        C  0.29958170  0.25730260  0.58463644    -0.11960
C272        C  0.28249413  0.22820373  0.57669098     0.02710
C273        C  0.29782034  0.19791799  0.58087959    -0.11380
H274        H  0.36778164  0.22498569  0.61547361     0.08310
H275        H  0.28919633  0.28093997  0.57955852     0.05840
H276        H  0.28584933  0.17566636  0.57282157     0.05680
C277        C  0.17247441  0.45357700  0.70427873     0.02720
C278        C  0.17642530  0.47326685  0.73119450    -0.13430
C279        C  0.20805265  0.48041145  0.74158745     0.00220
C280        C  0.23534351  0.47155862  0.72210185    -0.11960
C281        C  0.23186438  0.44973125  0.69624316     0.02710
C282        C  0.19976222  0.43846730  0.69032192    -0.11380
H283        H  0.15522183  0.48304807  0.74378327     0.08310
H284        H  0.25931944  0.48132069  0.72802238     0.05840
H285        H  0.19521405  0.41958379  0.67343598     0.05680
C286        C  0.25407795  0.02982938  0.92325568     0.02960
C287        C  0.22432982  0.03165949  0.94188069    -0.13430
C288        C  0.19417056  0.03004212  0.92689622     0.00220
C289        C  0.19414949  0.02809134  0.89236780    -0.11960
C290        C  0.22367099  0.02493154  0.87344905     0.02710
C291        C  0.25370257  0.02626651  0.88904154    -0.11380
H292        H  0.22460078  0.03168083  0.96852392     0.08310
H293        H  0.17091151  0.02590560  0.88066372     0.05840
H294        H  0.27643404  0.02240058  0.87503302     0.05680
C295        C  0.99534851  0.11880905  0.77504736     0.02720
C296        C  0.97995819  0.14903838  0.77754933    -0.13430
C297        C  0.97576423  0.16314224  0.80820373     0.00220
C298        C  0.98291848  0.14501287  0.83694345    -0.11960
C299        C  0.99635188  0.11412543  0.83484357     0.02710
C300        C  0.00582698  0.10311340  0.80398824    -0.11380
H301        H  0.97090840  0.16157547  0.75598949     0.08310
H302        H  0.97674532  0.15427266  0.86088270     0.05840
H303        H  0.01825268  0.08022962  0.80284150     0.05680
C304        C  0.42830090  0.34150649  0.85824708     0.02720
C305        C  0.42950625  0.30750057  0.85433055    -0.13430
C306        C  0.43303872  0.29551926  0.82270394     0.00220
C307        C  0.43178455  0.31733677  0.79498994    -0.11960
C308        C  0.43205502  0.35166585  0.79830391     0.02710
C309        C  0.43104385  0.36335814  0.83017661    -0.11380
H310        H  0.42940442  0.29055515  0.87579013     0.08310
H311        H  0.43330452  0.30766590  0.77067280     0.05840
H312        H  0.43314797  0.38960258  0.83334859     0.05680
O313        O  0.02736941  0.41276849  0.51573449    -0.80540
O314        O  0.43316783  0.46309200  0.67072813    -0.82090
O315        O  0.03521583  0.43437230  0.62587517    -0.79110
O316        O  0.44307785  0.38044552  0.59967566    -0.77500
O317        O  0.39916783  0.39454864  0.56986569    -0.79290
O318        O  0.05565514  0.48728288  0.61495635    -0.80220
O319        O  0.46585457  0.42315015  0.65425388    -0.81550
O320        O  0.01849878  0.39293790  0.56926170    -0.81840
Eu321      Eu  0.48292759  0.42944387  0.59733589     2.39200
O322        O  0.42983440  0.44928822  0.60033481    -0.89350
O323        O  0.01817376  0.46314691  0.56093111    -0.92950
C324        C  0.03108423  0.39128623  0.53983753     1.01740
C325        C  0.44805575  0.43587890  0.67628973     1.01560
C326        C  0.05702989  0.45810950  0.62838879     1.01500
C327        C  0.41471471  0.37417143  0.58763137     0.99360
H328        H  0.49370680  0.48243016  0.63837195     0.29110
O329        O  0.48505098  0.48276336  0.61671549    -1.01730
H330        H  0.46049393  0.40727733  0.53766524     0.29140
O331        O  0.46130158  0.42945490  0.54502633    -1.04270
O332        O  0.40416033  0.05553303  0.61517463    -0.81500
O333        O  0.49447142  0.50104969  0.95851817    -0.81040
O334        O  0.01469984  0.04856014  0.63063286    -0.79480
O335        O  0.36081036  0.44850345  0.58947032    -0.82820
O336        O  0.41311385  0.41970143  0.49646315    -0.80670
O337        O  0.06845551  0.01581552  0.53928986    -0.79320
O338        O  0.48511313  0.08711152  0.52677025    -0.80840
O339        O  0.39265149  0.03209777  0.50122896    -0.82760
O340        O  0.02948293  0.07122459  0.55427842    -0.79500
O341        O  0.37038020  0.48117797  0.51557399    -0.82180
O342        O  0.46268089  0.03776672  0.65424960    -0.77910
O343        O  0.05070998  0.48760754  0.49654723    -0.77950
O344        O  0.46546812  0.42926153  0.97351972    -0.77590
O345        O  0.37427619  0.48295320  0.62925814    -0.81090
O346        O  0.41196448  0.07492666  0.56131884    -0.80510
O347        O  0.46407969  0.04474510  0.97242290    -0.78840
Eu348      Eu  0.43155797  0.50228427  0.62008505     2.39770
Eu349      Eu  0.49589662  0.46396306  0.50880218     2.39570
Eu350      Eu  0.01955399  0.01680597  0.57970256     2.38400
Eu351      Eu  0.40826419  0.45047646  0.54797146     2.39880
Eu352      Eu  0.44497551  0.03806250  0.53005760     2.39790
O353        O  0.44265769  0.48443953  0.51099120    -0.93260
O354        O  0.46613290  0.03685738  0.58297536    -0.92150
C355        C  0.40072152  0.07716363  0.59124556     1.01910
C356        C  0.48156573  0.02892574  0.95190071     1.00630
C357        C  0.49183930  0.05136419  0.65361624     1.00020
C358        C  0.35416423  0.46255277  0.61671703     1.02040
C359        C  0.43637872  0.41557666  0.97421731     1.00950
C360        C  0.07285073  0.50458938  0.51014194     0.99800
C361        C  0.01438765  0.09242434  0.53721437     0.99860
C362        C  0.36944082  0.00940358  0.50024859     1.02470
H363        H  0.01130924  0.03112250  0.51244082     0.29850
O364        O  0.49743960  0.01713278  0.52781058    -1.05420
H365        H  0.38836472  0.01211862  0.56833886     0.31900
O366        O  0.41026139  0.50396453  0.56714658    -1.07980
C367        C  0.42665930  0.42602606  0.73688128    -0.02260
C368        C  0.44522396  0.41608347  0.70899652     0.07420
C369        C  0.46153868  0.38562428  0.71282356    -0.02370
C370        C  0.46114907  0.36873176  0.74376484    -0.02370
C371        C  0.43717505  0.37497680  0.76849273     0.07560
C372        C  0.41910652  0.40363343  0.76425125    -0.02570
Br373      Br  0.38222408  0.41191717  0.79375251    -0.01120
Br374      Br  0.41570368  0.47098351  0.74144817    -0.01190
Br375      Br  0.49623430  0.33956423  0.75271302    -0.01150
Br376      Br  0.48354607  0.36314215  0.67735174    -0.01130
C377        C  0.45256269  0.35077917  0.91287409    -0.02260
C378        C  0.42685142  0.35523605  0.89139272     0.07420
C379        C  0.40182878  0.37665614  0.89972186    -0.02370
C380        C  0.40502914  0.39699466  0.92634586    -0.02370
C381        C  0.43068632  0.39272009  0.94775489     0.07560
C382        C  0.45371046  0.36851127  0.94153550    -0.02570
Br383      Br  0.48806749  0.36025168  0.97144153    -0.01120
Br384      Br  0.48800897  0.32263716  0.90238213    -0.01190
Br385      Br  0.37798723  0.43422944  0.92938350    -0.01150
Br386      Br  0.36270221  0.37770172  0.87511222    -0.01130
C387        C  0.49537660  0.05098382  0.71382461    -0.02260
C388        C  0.49905973  0.06905831  0.68336625     0.07420
C389        C  0.00239417  0.10362712  0.68302709    -0.02370
C390        C  0.00603350  0.11935673  0.71274684    -0.02370
C391        C  0.99769643  0.10174085  0.74330384     0.07560
C392        C  0.99037920  0.06727192  0.74304863    -0.02570
Br393      Br  0.96803338  0.04217227  0.78012565    -0.01120
Br394      Br  0.49558197  0.50354085  0.71530919    -0.01190
Br395      Br  0.02402070  0.16418610  0.71047813    -0.01150
Br396      Br  0.49525318  0.12995145  0.64373108    -0.01130
C397        C  0.01833178  0.05805282  0.90718662    -0.02260
C398        C  0.48681178  0.04509839  0.91866580     0.07420
C399        C  0.45904226  0.05326939  0.90132028    -0.02370
C400        C  0.46238750  0.07590265  0.87400829    -0.02370
C401        C  0.99365427  0.09032598  0.86364046     0.07560
C402        C  0.02176038  0.08054311  0.87953238    -0.02570
Br403      Br  0.06459988  0.09924332  0.86435388    -0.01120
Br404      Br  0.05647289  0.54723412  0.93071653    -0.01190
Br405      Br  0.42384376  0.08704329  0.85083498    -0.01150
Br406      Br  0.41618094  0.03347096  0.91527729    -0.01130
C407        C  0.43084796  0.20363584  0.80870807    -0.02260
C408        C  0.46439857  0.19701831  0.81054861     0.07420
C409        C  0.98751008  0.22274866  0.81578350    -0.02370
C410        C  0.47712973  0.25483519  0.81962281    -0.02370
C411        C  0.44345556  0.26145882  0.81849373     0.07560
C412        C  0.42039509  0.23583752  0.81269790    -0.02570
Br413      Br  0.37457336  0.24499231  0.81052892    -0.01120
Br414      Br  0.39928669  0.16843510  0.80136524    -0.01190
Br415      Br  0.00946907  0.28972647  0.82585639    -0.01150
Br416      Br  0.03367381  0.21399315  0.81722039    -0.01130
C417        C  0.15317618  0.04725028  0.97108233    -0.02260
C418        C  0.16306319  0.02441389  0.94800779     0.07420
C419        C  0.14392035  0.99499961  0.94601501    -0.02370
C420        C  0.11396617  0.98951290  0.96463848    -0.02370
C421        C  0.10469186  0.01125921  0.98970968     0.07560
C422        C  0.12474403  0.04042897  0.49241736    -0.02570
Br423      Br  0.11232441  0.07326278  0.52270945    -0.01120
Br424      Br  0.17799518  0.08871100  0.47248551    -0.01190
Br425      Br  0.08586284  0.45288643  0.95189946    -0.01150
Br426      Br  0.15959980  0.96037637  0.91930096    -0.01130
C427        C  0.33323158  0.04719058  0.96656594    -0.02260
C428        C  0.33977191  0.01518925  0.98010635     0.07420
C429        C  0.31704916  0.48837677  0.97416500    -0.02370
C430        C  0.28977841  0.99360134  0.95505643    -0.02370
C431        C  0.28446700  0.02495394  0.94104373     0.07560
C432        C  0.30602162  0.05167386  0.94682848    -0.02570
Br433      Br  0.29708003  0.09480978  0.92836216    -0.01120
Br434      Br  0.35911771  0.08626920  0.47609200    -0.01190
Br435      Br  0.25835602  0.45754733  0.94873097    -0.01150
Br436      Br  0.32057366  0.44342356  0.99165614    -0.01130
C437        C  0.11717133  0.46557327  0.63383879    -0.02260
C438        C  0.08639895  0.45264401  0.64749382     0.07420
C439        C  0.08376745  0.43987977  0.68061780    -0.02370
C440        C  0.11197149  0.43913311  0.69935798    -0.02370
C441        C  0.14207392  0.45376352  0.68596513     0.07560
C442        C  0.14389936  0.46867755  0.65380162    -0.02570
Br443      Br  0.18139578  0.49728726  0.63828628    -0.01120
Br444      Br  0.12343806  0.47853570  0.58736640    -0.01190
Br445      Br  0.10925454  0.41905776  0.74348479    -0.01150
Br446      Br  0.04155598  0.42613760  0.70146349    -0.01130
C447        C  0.29226648  0.44279502  0.68964138    -0.02260
C448        C  0.26181464  0.44155074  0.67506252     0.07420
C449        C  0.26256277  0.43961693  0.63997723    -0.02370
C450        C  0.29290507  0.44439558  0.62102767    -0.02370
C451        C  0.32208709  0.45411588  0.63616514     0.07560
C452        C  0.32050209  0.45464463  0.67106886    -0.02570
Br453      Br  0.35240820  0.47776244  0.69528706    -0.01120
Br454      Br  0.29601096  0.42707643  0.73503271    -0.01190
Br455      Br  0.29287808  0.44126445  0.57389671    -0.01150
Br456      Br  0.22406527  0.42904282  0.61600111    -0.01130
C457        C  0.21870930  0.03753762  0.81237004    -0.02260
C458        C  0.22221660  0.01443070  0.83893090     0.07420
C459        C  0.22227769  0.48059935  0.83286693    -0.02370
C460        C  0.21680981  0.46986343  0.80122353    -0.02370
C461        C  0.21284518  0.49285181  0.77478934     0.07560
C462        C  0.21446899  0.02678288  0.78025216    -0.02570
Br463      Br  0.21115490  0.05821991  0.74365781    -0.01120
Br464      Br  0.22050846  0.08383935  0.82003033    -0.01190
Br465      Br  0.21394537  0.42324973  0.79414934    -0.01150
Br466      Br  0.23039346  0.44855285  0.86761601    -0.01130
C467        C  0.39806959  0.13778788  0.58400158    -0.02260
C468        C  0.38345718  0.10764725  0.59743754     0.07420
C469        C  0.35124406  0.10683124  0.61208919    -0.02370
C470        C  0.33365389  0.13597338  0.61258505    -0.02370
C471        C  0.34722435  0.16554706  0.59629805     0.07560
C472        C  0.37958509  0.16590080  0.58161567    -0.02570
Br473      Br  0.39867493  0.20356443  0.55528157    -0.01120
Br474      Br  0.44415026  0.14101381  0.56920153    -0.01190
Br475      Br  0.29156431  0.13512139  0.63655848    -0.01150
Br476      Br  0.33044865  0.06561901  0.62981117    -0.01130
C477        C  0.36033228  0.30224433  0.62514190    -0.02260
C478        C  0.35321074  0.28591541  0.59642228     0.07420
C479        C  0.36942399  0.29662398  0.56603236    -0.02370
C480        C  0.39171654  0.32396220  0.56410070    -0.02370
C481        C  0.39818728  0.34111561  0.59245617     0.07560
C482        C  0.38256279  0.33010700  0.62311201    -0.02570
Br483      Br  0.38948372  0.35474582  0.66154016    -0.01120
Br484      Br  0.33852749  0.28719382  0.66675799    -0.01190
Br485      Br  0.41225152  0.33882934  0.52177348    -0.01150
Br486      Br  0.36103075  0.27422119  0.52644179    -0.01130
C487        C  0.05125726  0.13804091  0.55589554    -0.02260
C488        C  0.03281300  0.12483660  0.53058078     0.07420
C489        C  0.03478162  0.14185218  0.49910314    -0.02370
C490        C  0.05619674  0.17033845  0.99309145    -0.02370
C491        C  0.07284505  0.18366200  0.51928128     0.07560
C492        C  0.06680717  0.16917006  0.55116130    -0.02570
Br493      Br  0.07554124  0.19345607  0.58939422    -0.01120
Br494      Br  0.06083964  0.11347405  0.59601315    -0.01190
Br495      Br  0.06276515  0.19104905  0.94941706    -0.01150
Br496      Br  0.51120340  0.12473965  0.96336996    -0.01130
C497        C  0.08248517  0.36301274  0.52170730    -0.02260
C498        C  0.04944179  0.36126681  0.53400773     0.07420
C499        C  0.03447573  0.33028165  0.54453667    -0.02370
C500        C  0.05240422  0.30172648  0.54325768    -0.02370
C501        C  0.08435874  0.30281454  0.52738868     0.07560
C502        C  0.09901584  0.33390911  0.51606421    -0.02570
Br503      Br  0.14089868  0.33741380  0.49142766    -0.01120
Br504      Br  0.10679888  0.40478074  0.51775680    -0.01190
Br505      Br  0.03319738  0.26221879  0.56648464    -0.01150
Br506      Br  0.48905321  0.32639756  0.56141625    -0.01130
C507        C  0.18962292  0.21433771  0.57238314    -0.02260
C508        C  0.18299017  0.23294752  0.54329921     0.07420
C509        C  0.20973123  0.24873087  0.52420145    -0.02370
C510        C  0.24225945  0.24667551  0.53446520    -0.02370
C511        C  0.24850242  0.22941966  0.56443995     0.07560
C512        C  0.22181068  0.21365820  0.58343350    -0.02570
Br513      Br  0.22872774  0.19322223  0.62629640    -0.01120
Br514      Br  0.15536198  0.18919939  0.59786261    -0.01190
Br515      Br  0.27809097  0.26688683  0.50665768    -0.01150
Br516      Br  0.20203684  0.27175565  0.48281936    -0.01130
C517        C  0.10174813  0.77147180  0.52311466     0.02720
C518        C  0.13386330  0.76741442  0.03384299    -0.13430
C519        C  0.14841405  0.73663006  0.03298673     0.00220
C520        C  0.12927924  0.70927665  0.02386593    -0.11960
C521        C  0.09654825  0.71264359  0.51504013     0.02710
C522        C  0.08434810  0.74407805  0.51168759    -0.11380
H523        H  0.14732956  0.78790729  0.04365473     0.08310
H524        H  0.13900734  0.68497217  0.02584602     0.05840
H525        H  0.05945678  0.74651589  0.50404088     0.05680
C526        C  0.32864973  0.69643645  0.09509168     0.02720
C527        C  0.34385033  0.72562720  0.10505364    -0.13430
C528        C  0.33081762  0.75610591  0.09763882     0.00220
C529        C  0.29958222  0.75730421  0.08463731    -0.11960
C530        C  0.28249445  0.72820541  0.07669189     0.02710
C531        C  0.29782047  0.69791958  0.08088048    -0.11380
H532        H  0.36778208  0.72498686  0.11547424     0.08310
H533        H  0.28919691  0.78094163  0.07955954     0.05840
H534        H  0.28584925  0.67566798  0.07282261     0.05680
C535        C  0.17246889  0.95358765  0.20428034     0.02720
C536        C  0.17642413  0.97326957  0.23120118    -0.13430
C537        C  0.20805389  0.98041489  0.24158841     0.00220
C538        C  0.23534237  0.97156717  0.22209540    -0.11960
C539        C  0.23185713  0.94975101  0.19622874     0.02710
C540        C  0.19975532  0.93848798  0.19030845    -0.11380
H541        H  0.15522190  0.98304530  0.24379744     0.08310
H542        H  0.25932215  0.98132030  0.22801599     0.05840
H543        H  0.19520828  0.91961514  0.17340930     0.05680
C544        C  0.25407802  0.52983472  0.42325500     0.02960
C545        C  0.22432979  0.53166383  0.44188022    -0.13430
C546        C  0.19417036  0.53004454  0.42689612     0.00220
C547        C  0.19414916  0.52809320  0.39236781    -0.11960
C548        C  0.22367072  0.52493432  0.37344891     0.02710
C549        C  0.25370247  0.52627101  0.38904101    -0.11380
H550        H  0.22460095  0.53168549  0.46852341     0.08310
H551        H  0.17091114  0.52590632  0.38066394     0.05840
H552        H  0.27643399  0.52240554  0.37503239     0.05680
C553        C  0.99534532  0.61881084  0.27504811     0.02720
C554        C  0.97995390  0.64903969  0.27754953    -0.13430
C555        C  0.97575908  0.66314397  0.30820368     0.00220
C556        C  0.98291376  0.64501523  0.33694376    -0.11960
C557        C  0.99634843  0.61412820  0.33484442     0.02710
C558        C  0.00582409  0.60311604  0.30398927    -0.11380
H559        H  0.97090401  0.66157613  0.25598939     0.08310
H560        H  0.97674010  0.65427516  0.36088282     0.05840
H561        H  0.01825070  0.58023275  0.30284289     0.05680
C562        C  0.42830203  0.84150694  0.35824707     0.02720
C563        C  0.42950193  0.80750099  0.35432955    -0.13430
C564        C  0.43302921  0.79552046  0.32270239     0.00220
C565        C  0.43177253  0.81733937  0.29498955    -0.11960
C566        C  0.43205320  0.85166918  0.29830417     0.02710
C567        C  0.43104934  0.86335962  0.33017763    -0.11380
H568        H  0.42940011  0.79055484  0.37578858     0.08310
H569        H  0.43328422  0.80766820  0.27067241     0.05840
H570        H  0.43316270  0.88960317  0.33335176     0.05680
O571        O  0.02736882  0.91276943  0.01573776    -0.80540
O572        O  0.43317091  0.96310006  0.17073405    -0.82090
O573        O  0.03521786  0.93437505  0.12587222    -0.79110
O574        O  0.44307700  0.88044911  0.09968133    -0.77500
O575        O  0.39916876  0.89454925  0.06986759    -0.79290
O576        O  0.05565016  0.98728787  0.11495672    -0.80220
O577        O  0.46587079  0.92316686  0.15426207    -0.81550
O578        O  0.01849804  0.89294064  0.06926554    -0.81840
Eu579      Eu  0.48292724  0.92944815  0.09733898     2.39200
O580        O  0.42983204  0.94929036  0.10034095    -0.89350
O581        O  0.01817451  0.96314904  0.06093222    -0.92950
C582        C  0.03108373  0.89128801  0.03984152     1.01740
C583        C  0.44806649  0.93589158  0.17629652     1.01560
C584        C  0.05702901  0.95811429  0.12838717     1.01500
C585        C  0.41471483  0.87417341  0.08763544     0.99360
H586        H  0.49370569  0.98243801  0.13836914     0.29110
O587        O  0.48504833  0.98276938  0.11671377    -1.01730
H588        H  0.46049435  0.90727937  0.03766938     0.29140
O589        O  0.46130185  0.92945690  0.04502953    -1.04270
O590        O  0.40415970  0.55553398  0.11517584    -0.81500
O591        O  0.49447306  0.00104887  0.45851729    -0.81040
O592        O  0.01469899  0.54856114  0.13063373    -0.79480
O593        O  0.36081625  0.94849599  0.08948028    -0.82820
O594        O  0.41311486  0.91970249  0.99646568    -0.80670
O595        O  0.06845461  0.51581589  0.03929056    -0.79320
O596        O  0.48511242  0.58711244  0.02677107    -0.80840
O597        O  0.39264994  0.53209798  0.00122987    -0.82760
O598        O  0.02948232  0.57122535  0.05427899    -0.79500
O599        O  0.37037580  0.98117556  0.01558091    -0.82180
O600        O  0.46268016  0.53776733  0.15425083    -0.77910
O601        O  0.05070956  0.98760760  0.99654699    -0.77950
O602        O  0.46546927  0.92926049  0.47351913    -0.77590
O603        O  0.37426283  0.98297464  0.12925419    -0.81090
O604        O  0.41196341  0.57492754  0.06131999    -0.80510
O605        O  0.46408084  0.54474537  0.47242341    -0.78840
Eu606      Eu  0.43155468  0.00228947  0.12008811     2.39770
Eu607      Eu  0.49589633  0.96396405  0.00880366     2.39570
Eu608      Eu  0.01955311  0.51680692  0.07970333     2.38400
Eu609      Eu  0.40826438  0.95047708  0.04797525     2.39880
Eu610      Eu  0.44497426  0.53806342  0.03005871     2.39790
O611        O  0.44265660  0.98443924  0.01099258    -0.93260
O612        O  0.46613191  0.53685837  0.08297647    -0.92150
C613        C  0.40072079  0.57716459  0.09124680     1.01910
C614        C  0.48156655  0.52892638  0.45190067     1.00630
C615        C  0.49183850  0.55136501  0.15361733     1.00020
C616        C  0.35416279  0.96255564  0.11671970     1.02040
C617        C  0.43637987  0.91557563  0.47421683     1.00950
C618        C  0.07284999  0.00459028  0.01014110     0.99800
C619        C  0.01438704  0.59242519  0.03721508     0.99860
C620        C  0.36943944  0.50940350  0.00024951     1.02470
H621        H  0.01130797  0.53112338  0.01244171     0.29850
O622        O  0.49743841  0.51713376  0.02781146    -1.05420
H623        H  0.38836376  0.51211930  0.06834004     0.31900
O624        O  0.41026070  0.00396600  0.06714801    -1.07980
C625        C  0.42669968  0.92605169  0.23689804    -0.02260
C626        C  0.44523373  0.91609341  0.20900111     0.07420
C627        C  0.46152043  0.88561700  0.21281508    -0.02370
C628        C  0.46113430  0.86872113  0.24375411    -0.02370
C629        C  0.43717718  0.87498141  0.26849329     0.07560
C630        C  0.41913397  0.90365750  0.26426402    -0.02570
Br631      Br  0.38226664  0.91196984  0.29377228    -0.01120
Br632      Br  0.41583185  0.97103087  0.24149667    -0.01190
Br633      Br  0.49620767  0.83953301  0.25268248    -0.01150
Br634      Br  0.48348489  0.86311862  0.17732944    -0.01130
C635        C  0.45256345  0.85077785  0.41287407    -0.02260
C636        C  0.42685246  0.85523538  0.39139277     0.07420
C637        C  0.40182990  0.87665555  0.39972159    -0.02370
C638        C  0.40503005  0.89699366  0.42634583    -0.02370
C639        C  0.43068740  0.89271900  0.44775467     0.07560
C640        C  0.45371149  0.86851006  0.44153532    -0.02570
Br641      Br  0.48806869  0.86025038  0.47144104    -0.01120
Br642      Br  0.48800843  0.82263434  0.40238192    -0.01190
Br643      Br  0.37798753  0.93422794  0.42938417    -0.01150
Br644      Br  0.36270440  0.87770235  0.37511006    -0.01130
C645        C  0.49537598  0.55098503  0.21382574    -0.02260
C646        C  0.49905887  0.56905939  0.18336729     0.07420
C647        C  0.00239282  0.60362843  0.18302798    -0.02370
C648        C  0.00603148  0.61935820  0.21274777    -0.02370
C649        C  0.99769439  0.60174233  0.24330475     0.07560
C650        C  0.99037827  0.56727318  0.24304960    -0.02570
Br651      Br  0.96803342  0.54217294  0.28012676    -0.01120
Br652      Br  0.49566496  0.00354908  0.21529033    -0.01190
Br653      Br  0.02401786  0.66418786  0.21047927    -0.01150
Br654      Br  0.49525231  0.62995235  0.14373177    -0.01130
C655        C  0.01833124  0.55805578  0.40718681    -0.02260
C656        C  0.48681186  0.54509972  0.41866595     0.07420
C657        C  0.45904183  0.55326994  0.40132089    -0.02370
C658        C  0.46238586  0.57590403  0.37400948    -0.02370
C659        C  0.99365195  0.59032889  0.36364158     0.07560
C660        C  0.02175868  0.58054674  0.37953301    -0.02570
Br661      Br  0.06459748  0.59924847  0.36435425    -0.01120
Br662      Br  0.05647422  0.04723843  0.43071893    -0.01190
Br663      Br  0.42384137  0.58704331  0.35083680    -0.01150
Br664      Br  0.41618150  0.53346894  0.41527761    -0.01130
C665        C  0.43084127  0.70363618  0.30870794    -0.02260
C666        C  0.46439229  0.69701992  0.31054776     0.07420
C667        C  0.98750302  0.72275157  0.31578031    -0.02370
C668        C  0.47712173  0.75483807  0.31961824    -0.02370
C669        C  0.44344707  0.76146039  0.31849037     0.07560
C670        C  0.42038728  0.73583775  0.31269670    -0.02570
Br671      Br  0.37456496  0.74499046  0.31052966    -0.01120
Br672      Br  0.39928097  0.66843378  0.30136769    -0.01190
Br673      Br  0.00946024  0.78973122  0.32584822    -0.01150
Br674      Br  0.03366720  0.71399780  0.31721660    -0.01130
C675        C  0.15317606  0.54725114  0.47108309    -0.02260
C676        C  0.16306323  0.52441535  0.44800799     0.07420
C677        C  0.14392058  0.49500098  0.44601473    -0.02370
C678        C  0.11396638  0.48951382  0.46463808    -0.02370
C679        C  0.10469225  0.51125922  0.48971012     0.07560
C680        C  0.12474373  0.54042773  0.99241767    -0.02570
Br681      Br  0.11232510  0.57326212  0.02270950    -0.01120
Br682      Br  0.17799607  0.58870819  0.97248520    -0.01190
Br683      Br  0.08586549  0.95288761  0.45189766    -0.01150
Br684      Br  0.15960022  0.46037804  0.41930042    -0.01130
C685        C  0.33323462  0.54719544  0.46656135    -0.02260
C686        C  0.33977249  0.51519487  0.48010571     0.07420
C687        C  0.31704923  0.98837861  0.47416552    -0.02370
C688        C  0.28977640  0.49360781  0.45505903    -0.02370
C689        C  0.28446719  0.52495946  0.44104299     0.07560
C690        C  0.30602399  0.55167871  0.44682456    -0.02570
Br691      Br  0.29708463  0.59481371  0.42835447    -0.01120
Br692      Br  0.35911337  0.58626861  0.97609413    -0.01190
Br693      Br  0.25835340  0.95755144  0.44873464    -0.01150
Br694      Br  0.32057318  0.94342508  0.49165578    -0.01130
C695        C  0.11716596  0.96560766  0.13384939    -0.02260
C696        C  0.08639829  0.95265260  0.14749295     0.07420
C697        C  0.08376908  0.93986584  0.18060974    -0.02370
C698        C  0.11197132  0.93912454  0.19935294    -0.02370
C699        C  0.14206657  0.95378082  0.18597176     0.07560
C700        C  0.14388711  0.96871844  0.15381914    -0.02570
Br701      Br  0.18136541  0.99736561  0.13833188    -0.01120
Br702      Br  0.12343976  0.97859106  0.08738226    -0.01190
Br703      Br  0.10926158  0.91902411  0.24346913    -0.01150
Br704      Br  0.04156307  0.92607914  0.20144194    -0.01130
C705        C  0.29225030  0.94275970  0.18963141    -0.02260
C706        C  0.26180224  0.94157336  0.17504273     0.07420
C707        C  0.26254984  0.93968657  0.13995334    -0.02370
C708        C  0.29289313  0.94446757  0.12100851    -0.02370
C709        C  0.32208651  0.95411147  0.13616316     0.07560
C710        C  0.32051146  0.95456556  0.17107117    -0.02570
Br711      Br  0.35252832  0.97747225  0.19532705    -0.01120
Br712      Br  0.29594804  0.92700742  0.23502114    -0.01190
Br713      Br  0.29286156  0.94144934  0.07386506    -0.01150
Br714      Br  0.22404587  0.92917205  0.11596527    -0.01130
C715        C  0.21870818  0.53753905  0.31236993    -0.02260
C716        C  0.22221638  0.51443273  0.33893105     0.07420
C717        C  0.22228391  0.98060325  0.33286707    -0.02370
C718        C  0.21681705  0.96986697  0.30122357    -0.02370
C719        C  0.21285054  0.99285498  0.27478964     0.07560
C720        C  0.21446780  0.52678363  0.28025234    -0.02570
Br721      Br  0.21115263  0.55821994  0.24365759    -0.01120
Br722      Br  0.22050610  0.58384094  0.32002951    -0.01190
Br723      Br  0.21395383  0.92325335  0.29414951    -0.01150
Br724      Br  0.23040091  0.94855734  0.36761626    -0.01130
C725        C  0.39806931  0.63778884  0.08400254    -0.02260
C726        C  0.38345680  0.60764837  0.09743885     0.07420
C727        C  0.35124376  0.60683266  0.11209066    -0.02370
C728        C  0.33365376  0.63597491  0.11258630    -0.02370
C729        C  0.34722429  0.66554836  0.09629890     0.07560
C730        C  0.37958493  0.66590180  0.08161636    -0.02570
Br731      Br  0.39867471  0.70356506  0.05528166    -0.01120
Br732      Br  0.44414991  0.64101445  0.06920226    -0.01190
Br733      Br  0.29156430  0.63512341  0.13655989    -0.01150
Br734      Br  0.33044823  0.56562067  0.12981311    -0.01130
C735        C  0.36033021  0.80224644  0.12514404    -0.02260
C736        C  0.35321112  0.78591684  0.09642422     0.07420
C737        C  0.36942587  0.79662541  0.06603510    -0.02370
C738        C  0.39171883  0.82396331  0.06410467    -0.02370
C739        C  0.39818759  0.84111734  0.09246035     0.07560
C740        C  0.38255959  0.83010999  0.12311505    -0.02570
Br741      Br  0.38947132  0.85475318  0.16154199    -0.01120
Br742      Br  0.33852329  0.78719573  0.16675908    -0.01190
Br743      Br  0.41225531  0.83883050  0.02177814    -0.01150
Br744      Br  0.36103294  0.77422383  0.02644368    -0.01130
C745        C  0.05125669  0.63804161  0.05589677    -0.02260
C746        C  0.03281257  0.62483750  0.03058177     0.07420
C747        C  0.03478172  0.64185322  0.99910420    -0.02370
C748        C  0.05619677  0.67033749  0.49309374    -0.02370
C749        C  0.07284479  0.68366312  0.01928308     0.07560
C750        C  0.06680673  0.66917077  0.05116291    -0.02570
Br751      Br  0.07554084  0.69345622  0.08939615    -0.01120
Br752      Br  0.06083880  0.61347435  0.09601424    -0.01190
Br753      Br  0.06276227  0.69104972  0.44941983    -0.01150
Br754      Br  0.51120118  0.62474007  0.46337349    -0.01130
C755        C  0.08248494  0.86301441  0.02171151    -0.02260
C756        C  0.04944170  0.86126850  0.03401256     0.07420
C757        C  0.03447588  0.83028332  0.04454171    -0.02370
C758        C  0.05240410  0.80172798  0.04326156    -0.02370
C759        C  0.08435830  0.80281605  0.02739183     0.07560
C760        C  0.09901539  0.83391074  0.01606764    -0.02570
Br761      Br  0.14089779  0.83741553  0.99143022    -0.01120
Br762      Br  0.10679889  0.90478234  0.01776140    -0.01190
Br763      Br  0.03319725  0.76221987  0.06648773    -0.01150
Br764      Br  0.48905398  0.82639949  0.06142306    -0.01130
C765        C  0.18962302  0.71434028  0.07238523    -0.02260
C766        C  0.18299017  0.73294929  0.04330085     0.07420
C767        C  0.20973123  0.74873213  0.02420260    -0.02370
C768        C  0.24225957  0.74667676  0.03446616    -0.02370
C769        C  0.24850263  0.72942147  0.06444117     0.07560
C770        C  0.22181090  0.71366068  0.08343528    -0.02570
Br771      Br  0.22872828  0.69322549  0.12629844    -0.01120
Br772      Br  0.15536186  0.68920352  0.09786592    -0.01190
Br773      Br  0.27809124  0.76688730  0.00665820    -0.01150
Br774      Br  0.20203662  0.77175646  0.98282036    -0.01130
C775        C  0.10174714  0.77147240  0.02311523     0.02720
C776        C  0.13386432  0.76741443  0.53384262    -0.13430
C777        C  0.14841532  0.73663014  0.53298719     0.00220
C778        C  0.12928074  0.70927632  0.52386700    -0.11960
C779        C  0.09654673  0.71264445  0.01503929     0.02710
C780        C  0.08434686  0.74407912  0.01168753    -0.11380
H781        H  0.14733038  0.78790769  0.54365387     0.08310
H782        H  0.13900905  0.68497195  0.52584769     0.05840
H783        H  0.05945555  0.74651740  0.00404096     0.05680
C784        C  0.32865039  0.69643445  0.59509233     0.02720
C785        C  0.34385120  0.72562506  0.60505466    -0.13430
C786        C  0.33081922  0.75610410  0.59763943     0.00220
C787        C  0.29958402  0.75730292  0.58463761    -0.11960
C788        C  0.28249586  0.72820444  0.57669204     0.02710
C789        C  0.29782137  0.69791829  0.58088063    -0.11380
H790        H  0.36778257  0.72498434  0.61547601     0.08310
H791        H  0.28919915  0.78094055  0.57955973     0.05840
H792        H  0.28584984  0.67566701  0.57282244     0.05680
C793        C  0.17247041  0.95359016  0.70427684     0.02720
C794        C  0.17642550  0.97327350  0.73119670    -0.13430
C795        C  0.20805495  0.98041767  0.74158514     0.00220
C796        C  0.23534364  0.97156808  0.72209365    -0.11960
C797        C  0.23185885  0.94975030  0.69622818     0.02710
C798        C  0.19975672  0.93848829  0.69030735    -0.11380
H799        H  0.15522339  0.98305077  0.74379167     0.08310
H800        H  0.25932310  0.98132154  0.72801464     0.05840
H801        H  0.19520905  0.91961388  0.67341030     0.05680
C802        C  0.25407731  0.52982497  0.92325690     0.02960
C803        C  0.22432936  0.53165481  0.94188238    -0.13430
C804        C  0.19416982  0.53003742  0.92689837     0.00220
C805        C  0.19414823  0.52808653  0.89237004    -0.11960
C806        C  0.22366937  0.52492651  0.87345086     0.02710
C807        C  0.25370130  0.52626164  0.88904280    -0.11380
H808        H  0.22460074  0.53167637  0.96852557     0.08310
H809        H  0.17091004  0.52590097  0.88066630     0.05840
H810        H  0.27643254  0.52239570  0.87503391     0.05680
C811        C  0.99534665  0.61881069  0.77504830     0.02720
C812        C  0.97995806  0.64904093  0.77754966    -0.13430
C813        C  0.97576401  0.66314495  0.80820398     0.00220
C814        C  0.98291775  0.64501557  0.83694394    -0.11960
C815        C  0.99635002  0.61412751  0.83484447     0.02710
C816        C  0.00582399  0.60311443  0.80398931    -0.11380
H817        H  0.97090936  0.66157833  0.75598941     0.08310
H818        H  0.97674482  0.65427575  0.86088306     0.05840
H819        H  0.01824734  0.58022924  0.80284269     0.05680
C820        C  0.42830247  0.84150792  0.85824758     0.02720
C821        C  0.42950381  0.80750208  0.85433011    -0.13430
C822        C  0.43303306  0.79552170  0.82270304     0.00220
C823        C  0.43177714  0.81734041  0.79499004    -0.11960
C824        C  0.43205557  0.85167002  0.79830472     0.02710
C825        C  0.43104952  0.86336061  0.83017811    -0.11380
H826        H  0.42940166  0.79055594  0.87578917     0.08310
H827        H  0.43329100  0.80766942  0.77067286     0.05840
H828        H  0.43316101  0.88960429  0.83335207     0.05680
O829        O  0.02736842  0.91276869  0.51573508    -0.80540
O830        O  0.43317328  0.96309951  0.67073371    -0.82090
O831        O  0.03521554  0.93437418  0.62587328    -0.79110
O832        O  0.44307862  0.88044744  0.59968036    -0.77500
O833        O  0.39917024  0.89454804  0.56986704    -0.79290
O834        O  0.05564983  0.98728638  0.61495625    -0.80220
O835        O  0.46586901  0.92316366  0.65426062    -0.81550
O836        O  0.01849770  0.89293881  0.56926248    -0.81840
Eu837      Eu  0.48292881  0.92944639  0.59733842     2.39200
O838        O  0.42983406  0.94928922  0.60034014    -0.89350
O839        O  0.01817253  0.96314801  0.56093071    -0.92950
C840        C  0.03108332  0.89128677  0.53983841     1.01740
C841        C  0.44806701  0.93588993  0.67629582     1.01560
C842        C  0.05702736  0.95811315  0.62838774     1.01500
C843        C  0.41471635  0.87417196  0.58763463     0.99360
H844        H  0.49370817  0.98243554  0.63836963     0.29110
O845        O  0.48505094  0.98276731  0.61671415    -1.01730
H846        H  0.46049609  0.90727825  0.53766848     0.29140
O847        O  0.46130370  0.92945577  0.54502879    -1.04270
O848        O  0.40415652  0.55552776  0.61517498    -0.81500
O849        O  0.49447128  0.00104920  0.95851771    -0.81040
O850        O  0.01470114  0.54855767  0.63063630    -0.79480
O851        O  0.36081715  0.94849692  0.58947857    -0.82820
O852        O  0.41311667  0.91970176  0.49646496    -0.80670
O853        O  0.06845774  0.51581449  0.53929081    -0.79320
O854        O  0.48511340  0.58711134  0.52677129    -0.80840
O855        O  0.39264995  0.53210346  0.50123006    -0.82760
O856        O  0.02948514  0.57122334  0.55428080    -0.79500
O857        O  0.37037817  0.98117491  0.51558037    -0.82180
O858        O  0.46267485  0.53776095  0.65425105    -0.77910
O859        O  0.05070878  0.98760710  0.49654696    -0.77950
O860        O  0.46546740  0.92926143  0.97351978    -0.77590
O861        O  0.37426656  0.98297168  0.62925437    -0.81090
O862        O  0.41196433  0.57492598  0.56132095    -0.80510
O863        O  0.46408022  0.54474545  0.97242445    -0.78840
Eu864      Eu  0.43155738  0.00228807  0.62008755     2.39770
Eu865      Eu  0.49589846  0.96396306  0.50880311     2.39570
Eu866      Eu  0.01955700  0.51680425  0.57970477     2.38400
Eu867      Eu  0.40826628  0.95047604  0.54797466     2.39880
Eu868      Eu  0.44497483  0.53806307  0.53005791     2.39790
O869        O  0.44265876  0.98443832  0.51099227    -0.93260
O870        O  0.46613234  0.53685589  0.58297548    -0.92150
C871        C  0.40071938  0.57716056  0.59124732     1.01910
C872        C  0.48156572  0.52892629  0.95190173     1.00630
C873        C  0.49183294  0.55135778  0.65362126     1.00020
C874        C  0.35416466  0.96255551  0.61671880     1.02040
C875        C  0.43637808  0.91557643  0.97421753     1.00950
C876        C  0.07284920  0.00458943  0.51014154     0.99800
C877        C  0.01439026  0.59242330  0.53721652     0.99860
C878        C  0.36944062  0.50940850  0.50024641     1.02470
H879        H  0.01131101  0.53112187  0.51244295     0.29850
O880        O  0.49743834  0.51713198  0.52781221    -1.05420
H881        H  0.38836315  0.51211840  0.56833871     0.31900
O882        O  0.41026291  0.00396486  0.56714780    -1.07980
C883        C  0.42669612  0.92604882  0.73689590    -0.02260
C884        C  0.44523534  0.91609294  0.70900113     0.07420
C885        C  0.46152741  0.88561984  0.71281781    -0.02370
C886        C  0.46114017  0.86872465  0.74375731    -0.02370
C887        C  0.43717947  0.87498212  0.76849399     0.07560
C888        C  0.41913203  0.90365488  0.76426234    -0.02570
Br889      Br  0.38226149  0.91196242  0.79376857    -0.01120
Br890      Br  0.41581563  0.97102486  0.74149012    -0.01190
Br891      Br  0.49621573  0.83954057  0.75269012    -0.01150
Br892      Br  0.48350166  0.86312512  0.67733534    -0.01130
C893        C  0.45256286  0.85077891  0.91287502    -0.02260
C894        C  0.42685216  0.85523628  0.89139332     0.07420
C895        C  0.40182929  0.87665623  0.89972184    -0.02370
C896        C  0.40502889  0.89699428  0.92634620    -0.02370
C897        C  0.43068589  0.89271970  0.94775545     0.07560
C898        C  0.45371029  0.86851100  0.94153635    -0.02570
Br899      Br  0.48806736  0.86025173  0.97144237    -0.01120
Br900      Br  0.48800846  0.82263597  0.90238337    -0.01190
Br901      Br  0.37798630  0.93422854  0.92938404    -0.01150
Br902      Br  0.36270416  0.87770287  0.87510978    -0.01130
C903        C  0.49534473  0.55097953  0.71383357    -0.02260
C904        C  0.49904866  0.56905069  0.68337349     0.07420
C905        C  0.00239713  0.60362501  0.68302898    -0.02370
C906        C  0.00603498  0.61935545  0.71274849    -0.02370
C907        C  0.99769308  0.60174158  0.74330548     0.07560
C908        C  0.99036966  0.56727377  0.74305127    -0.02570
Br909      Br  0.96801780  0.54217951  0.78012850    -0.01120
Br910      Br  0.49565375  0.00354783  0.71529279    -0.01190
Br911      Br  0.02402545  0.66418363  0.71047990    -0.01150
Br912      Br  0.49527171  0.62994377  0.64373182    -0.01130
C913        C  0.01833007  0.55805416  0.90718688    -0.02260
C914        C  0.48681051  0.54509941  0.91866691     0.07420
C915        C  0.45904008  0.55327252  0.90132379    -0.02370
C916        C  0.46238416  0.57590766  0.87401332    -0.02370
C917        C  0.99365231  0.59032850  0.86364170     0.07560
C918        C  0.02175856  0.58054480  0.87953292    -0.02570
Br919      Br  0.06459818  0.59924421  0.86435379    -0.01120
Br920      Br  0.05647445  0.04723363  0.93071679    -0.01190
Br921      Br  0.42383869  0.58705311  0.85084519    -0.01150
Br922      Br  0.41617906  0.53347396  0.91528168    -0.01130
C923        C  0.43084630  0.70363794  0.80870785    -0.02260
C924        C  0.46439731  0.69702187  0.81054852     0.07420
C925        C  0.98750874  0.72275178  0.81578296    -0.02370
C926        C  0.47712603  0.75483976  0.81962022    -0.02370
C927        C  0.44345139  0.76146185  0.81849144     0.07560
C928        C  0.42039196  0.73583927  0.81269681    -0.02570
Br929      Br  0.37456964  0.74499177  0.81052869    -0.01120
Br930      Br  0.39928632  0.66843564  0.80136619    -0.01190
Br931      Br  0.00946641  0.78973047  0.82585406    -0.01150
Br932      Br  0.03367268  0.71399723  0.81721985    -0.01130
C933        C  0.15317620  0.54724675  0.97108468    -0.02260
C934        C  0.16306247  0.52441005  0.94801014     0.07420
C935        C  0.14391831  0.49499666  0.94601690    -0.02370
C936        C  0.11396359  0.48951134  0.96463963    -0.02370
C937        C  0.10469012  0.51125775  0.98971103     0.07560
C938        C  0.12474437  0.54043020  0.49241671    -0.02570
Br939      Br  0.11232458  0.57326340  0.52270936    -0.01120
Br940      Br  0.17799355  0.58871395  0.47248362    -0.01190
Br941      Br  0.08586716  0.95288616  0.95189975    -0.01150
Br942      Br  0.15959644  0.46037256  0.91930332    -0.01130
C943        C  0.33323068  0.54718890  0.96656717    -0.02260
C944        C  0.33977230  0.51518787  0.98010728     0.07420
C945        C  0.31704790  0.98837891  0.97416428    -0.02370
C946        C  0.28977965  0.49359817  0.95505684    -0.02370
C947        C  0.28446690  0.52495058  0.94104454     0.07560
C948        C  0.30602041  0.55167128  0.94682982    -0.02570
Br949      Br  0.29707686  0.59480696  0.92836439    -0.01120
Br950      Br  0.35912336  0.58627384  0.47608067    -0.01190
Br951      Br  0.25835314  0.95755169  0.94873148    -0.01150
Br952      Br  0.32057150  0.94342544  0.99165494    -0.01130
C953        C  0.11716535  0.96559835  0.63384496    -0.02260
C954        C  0.08639663  0.95265148  0.64749327     0.07420
C955        C  0.08376709  0.93987551  0.68061353    -0.02370
C956        C  0.11197050  0.93913325  0.69935492    -0.02370
C957        C  0.14206759  0.95378107  0.68596855     0.07560
C958        C  0.14388835  0.96871039  0.65381227    -0.02570
Br959      Br  0.18136900  0.99735026  0.63831623    -0.01120
Br960      Br  0.12343652  0.97857169  0.58737540    -0.01190
Br961      Br  0.10925965  0.91904260  0.74347521    -0.01150
Br962      Br  0.04155912  0.92610937  0.70145301    -0.01130
C963        C  0.29225302  0.94276473  0.68963132    -0.02260
C964        C  0.26180468  0.94157097  0.67504351     0.07420
C965        C  0.26255288  0.93967786  0.63995467    -0.02370
C966        C  0.29289604  0.94446008  0.62100944    -0.02370
C967        C  0.32208788  0.95411300  0.63616241     0.07560
C968        C  0.32051121  0.95457608  0.67106990    -0.02570
Br969      Br  0.35251369  0.97750950  0.69532145    -0.01120
Br970      Br  0.29595597  0.92701661  0.73502132    -0.01190
Br971      Br  0.29286499  0.94143161  0.57386708    -0.01150
Br972      Br  0.22405097  0.92915071  0.61596825    -0.01130
C973        C  0.21870893  0.53753226  0.81237154    -0.02260
C974        C  0.22221398  0.51442530  0.83893291     0.07420
C975        C  0.22228350  0.98060501  0.83286418    -0.02370
C976        C  0.21681700  0.96986914  0.80122045    -0.02370
C977        C  0.21285091  0.99285746  0.77478666     0.07560
C978        C  0.21446737  0.52677735  0.78025390    -0.02570
Br979      Br  0.21115904  0.55821416  0.74365834    -0.01120
Br980      Br  0.22051378  0.58383420  0.82003063    -0.01190
Br981      Br  0.21395372  0.92325560  0.79414590    -0.01150
Br982      Br  0.23040011  0.94855866  0.86761311    -0.01130
C983        C  0.39806966  0.63778530  0.58400698    -0.02260
C984        C  0.38345541  0.60764440  0.59744029     0.07420
C985        C  0.35124113  0.60682883  0.61208901    -0.02370
C986        C  0.33365194  0.63597169  0.61258497    -0.02370
C987        C  0.34722433  0.66554572  0.59630004     0.07560
C988        C  0.37958607  0.66589884  0.58162010    -0.02570
Br989      Br  0.39867855  0.70356224  0.55528733    -0.01120
Br990      Br  0.44415162  0.64101056  0.56921167    -0.01190
Br991      Br  0.29156103  0.63512001  0.63655586    -0.01150
Br992      Br  0.33044288  0.56561637  0.62980648    -0.01130
C993        C  0.36033243  0.80224479  0.62514411    -0.02260
C994        C  0.35321318  0.78591479  0.59642455     0.07420
C995        C  0.36942769  0.79662314  0.56603522    -0.02370
C996        C  0.39172004  0.82396159  0.56410421    -0.02370
C997        C  0.39818905  0.84111587  0.59245968     0.07560
C998        C  0.38256190  0.83010832  0.62311471    -0.02570
Br999      Br  0.38947555  0.85475091  0.66154173    -0.01120
Br1000     Br  0.33852558  0.78719470  0.66675936    -0.01190
Br1001     Br  0.41225568  0.83882889  0.52177734    -0.01150
Br1002     Br  0.36103544  0.77422025  0.52644439    -0.01130
C1003       C  0.05126098  0.63803936  0.55589732    -0.02260
C1004       C  0.03281599  0.62483547  0.53058287     0.07420
C1005       C  0.03478372  0.64185181  0.49910557    -0.02370
C1006       C  0.05619525  0.67033858  0.99309258    -0.02370
C1007       C  0.07284668  0.68366200  0.51928401     0.07560
C1008       C  0.06680954  0.66916914  0.55116371    -0.02570
Br1009     Br  0.07554171  0.69345487  0.58939715    -0.01120
Br1010     Br  0.06084714  0.61347121  0.59601295    -0.01190
Br1011     Br  0.06276206  0.69105029  0.94941856    -0.01150
Br1012     Br  0.51120498  0.62473933  0.96337159    -0.01130
C1013       C  0.08248461  0.86301350  0.52170836    -0.02260
C1014       C  0.04944129  0.86126738  0.53400909     0.07420
C1015       C  0.03447570  0.83028214  0.54453857    -0.02370
C1016       C  0.05240452  0.80172713  0.54325973    -0.02370
C1017       C  0.08435888  0.80281532  0.52739036     0.07560
C1018       C  0.09901554  0.83390994  0.51606539    -0.02570
Br1019     Br  0.14089811  0.83741475  0.49142833    -0.01120
Br1020     Br  0.10679799  0.90478169  0.51775747    -0.01190
Br1021     Br  0.03319847  0.76221948  0.56648746    -0.01150
Br1022     Br  0.48905504  0.82639795  0.56142255    -0.01130
C1023       C  0.18962415  0.71434132  0.57238634    -0.02260
C1024       C  0.18299143  0.73294974  0.54330155     0.07420
C1025       C  0.20973261  0.74873197  0.52420297    -0.02370
C1026       C  0.24226099  0.74667628  0.53446641    -0.02370
C1027       C  0.24850398  0.72942114  0.56444153     0.07560
C1028       C  0.22181209  0.71366134  0.58343617    -0.02570
Br1029     Br  0.22872942  0.69322722  0.62629982    -0.01120
Br1030     Br  0.15536270  0.68920601  0.59786800    -0.01190
Br1031     Br  0.27809280  0.76688638  0.50665832    -0.01150
Br1032     Br  0.20203808  0.77175590  0.48282051    -0.01130
C1033       C  0.60174780  0.27147177  0.52311207     0.02720
C1034       C  0.63386301  0.26741458  0.03384153    -0.13430
C1035       C  0.64841380  0.23663023  0.03298487     0.00220
C1036       C  0.62927916  0.20927703  0.02386340    -0.11960
C1037       C  0.59654799  0.21264377  0.51503673     0.02710
C1038       C  0.58434796  0.24407828  0.51168433    -0.11380
H1039       H  0.64732914  0.28790727  0.04365371     0.08310
H1040       H  0.63900727  0.18497253  0.02584311     0.05840
H1041       H  0.55945677  0.24651627  0.50403730     0.05680
C1042       C  0.82864874  0.19643640  0.09509144     0.02720
C1043       C  0.84384921  0.22562708  0.10505368    -0.13430
C1044       C  0.83081650  0.25610578  0.09763885     0.00220
C1045       C  0.79958112  0.25730410  0.08463735    -0.11960
C1046       C  0.78249349  0.22820535  0.07669162     0.02710
C1047       C  0.79781959  0.19791955  0.08088006    -0.11380
H1048       H  0.86778095  0.22498672  0.11547430     0.08310
H1049       H  0.78919583  0.28094154  0.07955963     0.05840
H1050       H  0.78584854  0.17566799  0.07282191     0.05680
C1051       C  0.67247186  0.45357623  0.20428041     0.02720
C1052       C  0.67642397  0.47326350  0.23119783    -0.13430
C1053       C  0.70805213  0.48040912  0.24158849     0.00220
C1054       C  0.73534224  0.47155835  0.22210031    -0.11960
C1055       C  0.73186123  0.44973453  0.19623915     0.02710
C1056       C  0.69975935  0.43847021  0.19031848    -0.11380
H1057       H  0.65522076  0.48304263  0.24378907     0.08310
H1058       H  0.75931939  0.48131795  0.22802052     0.05840
H1059       H  0.69521185  0.41959030  0.17342797     0.05680
C1060       C  0.75407811  0.02983355  0.42325388     0.02960
C1061       C  0.72432982  0.03166346  0.44187873    -0.13430
C1062       C  0.69417060  0.03004486  0.42689425     0.00220
C1063       C  0.69414974  0.02809350  0.39236591    -0.11960
C1064       C  0.72367140  0.02493382  0.37344742     0.02710
C1065       C  0.75370292  0.02626986  0.38903990    -0.11380
H1066       H  0.72460070  0.03168514  0.46852194     0.08310
H1067       H  0.67091184  0.02590702  0.38066177     0.05840
H1068       H  0.77643449  0.02240381  0.37503160     0.05680
C1069       C  0.49534925  0.11881146  0.27504655     0.02720
C1070       C  0.47995389  0.14903827  0.27754881    -0.13430
C1071       C  0.47575782  0.16314194  0.30820317     0.00220
C1072       C  0.48291275  0.14501310  0.33694302    -0.11960
C1073       C  0.49635028  0.11412750  0.33484320     0.02710
C1074       C  0.50582954  0.10311791  0.30398787    -0.11380
H1075       H  0.47090237  0.16157407  0.25598920     0.08310
H1076       H  0.47673760  0.15427199  0.36088222     0.05840
H1077       H  0.51826120  0.08023761  0.30284151     0.05680
C1078       C  0.92830018  0.34150527  0.35824600     0.02720
C1079       C  0.92950388  0.30749940  0.35432909    -0.13430
C1080       C  0.93303379  0.29551843  0.32270224     0.00220
C1081       C  0.93177797  0.31733647  0.29498878    -0.11960
C1082       C  0.93205212  0.35166584  0.29830307     0.02710
C1083       C  0.93104407  0.36335738  0.33017605    -0.11380
H1084       H  0.92940289  0.29055380  0.37578847     0.08310
H1085       H  0.93329439  0.30766551  0.27067161     0.05840
H1086       H  0.93315151  0.38960146  0.33334898     0.05680
O1087       O  0.52736865  0.41276989  0.01573705    -0.80540
O1088       O  0.93316596  0.46309432  0.17072974    -0.82090
O1089       O  0.53521748  0.43437350  0.12587304    -0.79110
O1090       O  0.94307688  0.38044742  0.09967844    -0.77500
O1091       O  0.89916743  0.39454899  0.06986698    -0.79290
O1092       O  0.55565383  0.48728503  0.11495631    -0.80220
O1093       O  0.96585989  0.42315711  0.15425721    -0.81550
O1094       O  0.51849805  0.39294047  0.06926465    -0.81840
Eu1095     Eu  0.98292660  0.42944619  0.09733733     2.39200
O1096       O  0.92983236  0.44928913  0.10033702    -0.89350
O1097       O  0.51817463  0.46314846  0.06093226    -0.92950
C1098       C  0.53108367  0.39128823  0.03984055     1.01740
C1099       C  0.94805745  0.43588341  0.17629194     1.01560
C1100       C  0.55703051  0.45811123  0.12838727     1.01500
C1101       C  0.91471410  0.37417254  0.08763365     0.99360
H1102       H  0.99370426  0.48243415  0.13837081     0.29110
O1103       O  0.98504804  0.48276642  0.11671475    -1.01730
H1104       H  0.96049315  0.40727821  0.03766718     0.29140
O1105       O  0.96130057  0.42945573  0.04502785    -1.04270
O1106       O  0.90415885  0.05553455  0.11517464    -0.81500
O1107       O  0.99447252  0.50104898  0.45851711    -0.81040
O1108       O  0.51470312  0.04856454  0.13062968    -0.79480
O1109       O  0.86081133  0.44849967  0.08947398    -0.82820
O1110       O  0.91311294  0.41970163  0.99646416    -0.80670
O1111       O  0.56845579  0.01581679  0.03928923    -0.79320
O1112       O  0.98511098  0.08711276  0.02676971    -0.80840
O1113       O  0.89264983  0.03209668  0.00122842    -0.82760
O1114       O  0.52948376  0.07122636  0.05427710    -0.79500
O1115       O  0.87037723  0.48117645  0.01557615    -0.82180
O1116       O  0.96267994  0.03776760  0.15425012    -0.77910
O1117       O  0.55070920  0.48760824  0.99654711    -0.77950
O1118       O  0.96546761  0.42926026  0.47351794    -0.77590
O1119       O  0.87426967  0.48295996  0.12925676    -0.81090
O1120       O  0.91196227  0.07492736  0.06131849    -0.80510
O1121       O  0.96408004  0.04474426  0.47242212    -0.78840
Eu1122     Eu  0.93155463  0.50228629  0.12008607     2.39770
Eu1123     Eu  0.99589504  0.46396366  0.00880299     2.39570
Eu1124     Eu  0.51955443  0.01680804  0.07970184     2.38400
Eu1125     Eu  0.90826299  0.45047657  0.04797286     2.39880
Eu1126     Eu  0.94497345  0.03806314  0.03005746     2.39790
O1127       O  0.94265574  0.48443957  0.01099178    -0.93260
O1128       O  0.96613011  0.03685891  0.08297546    -0.92150
C1129       C  0.90071980  0.07716477  0.09124533     1.01910
C1130       C  0.98156626  0.02892516  0.45189987     1.00630
C1131       C  0.99183818  0.05136584  0.15361561     1.00020
C1132       C  0.85416238  0.46255241  0.11671816     1.02040
C1133       C  0.93637830  0.41557496  0.47421536     1.00950
C1134       C  0.57285021  0.50459013  0.01014123     0.99800
C1135       C  0.51438756  0.09242600  0.03721381     0.99860
C1136       C  0.86943920  0.00940233  0.00024863     1.02470
H1137       H  0.51130926  0.03112413  0.01244030     0.29850
O1138       O  0.99743769  0.01713392  0.02780993    -1.05420
H1139       H  0.88836287  0.01211883  0.06833878     0.31900
O1140       O  0.91025910  0.50396502  0.06714697    -1.07980
C1141       C  0.92667123  0.42603461  0.23688699    -0.02260
C1142       C  0.94522433  0.41608629  0.20899750     0.07420
C1143       C  0.96152791  0.38562026  0.21281911    -0.02370
C1144       C  0.96114023  0.36872652  0.24375944    -0.02370
C1145       C  0.93717310  0.37497736  0.26849205     0.07560
C1146       C  0.91911402  0.40364135  0.26425558    -0.02570
Br1147     Br  0.88223798  0.41193589  0.29376051    -0.01120
Br1148     Br  0.91574725  0.47099991  0.24146524    -0.01190
Br1149     Br  0.99622130  0.33955134  0.25269924    -0.01150
Br1150     Br  0.98351659  0.36313096  0.17734132    -0.01130
C1151       C  0.95256381  0.35077897  0.41287134    -0.02260
C1152       C  0.92685111  0.35523423  0.39139159     0.07420
C1153       C  0.90182654  0.37665151  0.39972250    -0.02370
C1154       C  0.90502552  0.39698878  0.42634770    -0.02370
C1155       C  0.93068601  0.39271782  0.44775356     0.07560
C1156       C  0.95371188  0.36851102  0.44153262    -0.02570
Br1157     Br  0.98807003  0.36025225  0.47143750    -0.01120
Br1158     Br  0.98801109  0.32263893  0.40237714    -0.01190
Br1159     Br  0.87797326  0.43421520  0.42939415    -0.01150
Br1160     Br  0.86269986  0.37769532  0.37511270    -0.01130
C1161       C  0.99538227  0.05098452  0.21382307    -0.02260
C1162       C  0.99905994  0.06905998  0.18336517     0.07420
C1163       C  0.50239073  0.10363485  0.18302462    -0.02370
C1164       C  0.50603051  0.11936384  0.21274475    -0.02370
C1165       C  0.49770226  0.10174452  0.24330193     0.07560
C1166       C  0.49039892  0.06727311  0.24304517    -0.02570
Br1167     Br  0.46806427  0.04216284  0.28012141    -0.01120
Br1168     Br  0.99561075  0.50354326  0.21530182    -0.01190
Br1169     Br  0.52400902  0.16419634  0.21047574    -0.01150
Br1170     Br  0.99524626  0.12995329  0.14373178    -0.01130
C1171       C  0.51833221  0.05805526  0.40718646    -0.02260
C1172       C  0.98681230  0.04509815  0.41866515     0.07420
C1173       C  0.95904274  0.05326784  0.40131915    -0.02370
C1174       C  0.96238745  0.07590135  0.37400734    -0.02370
C1175       C  0.49365373  0.09032702  0.36363964     0.07560
C1176       C  0.52176007  0.08054593  0.37953237    -0.02570
Br1177     Br  0.56459885  0.09924887  0.36435514    -0.01120
Br1178     Br  0.55647422  0.54723903  0.43071759    -0.01190
Br1179     Br  0.92384368  0.08703982  0.35083305    -0.01150
Br1180     Br  0.91618209  0.03346724  0.41527533    -0.01130
C1181       C  0.93084383  0.20363448  0.30870788    -0.02260
C1182       C  0.96439463  0.19701748  0.31054773     0.07420
C1183       C  0.48750265  0.22274922  0.31578054    -0.02370
C1184       C  0.97712539  0.25483506  0.31961931    -0.02370
C1185       C  0.94345099  0.26145814  0.31849120     0.07560
C1186       C  0.92039062  0.23583621  0.31269698    -0.02570
Br1187     Br  0.87456860  0.24499015  0.31052935    -0.01120
Br1188     Br  0.89928277  0.16843293  0.30136704    -0.01190
Br1189     Br  0.50946111  0.28972808  0.32585021    -0.01150
Br1190     Br  0.53366668  0.21399464  0.31721646    -0.01130
C1191       C  0.65317620  0.04725175  0.47108093    -0.02260
C1192       C  0.66306331  0.02441591  0.44800586     0.07420
C1193       C  0.64392075  0.99500145  0.44601278    -0.02370
C1194       C  0.61396683  0.98951407  0.46463659    -0.02370
C1195       C  0.60469274  0.01125961  0.48970852     0.07560
C1196       C  0.62474442  0.04042852  0.99241608    -0.02570
Br1197     Br  0.61232561  0.07326304  0.02270779    -0.01120
Br1198     Br  0.67799625  0.08870940  0.97248310    -0.01190
Br1199     Br  0.58586423  0.45288810  0.45189716    -0.01150
Br1200     Br  0.65960016  0.96037875  0.41929799    -0.01130
C1201       C  0.83323399  0.04719347  0.46656112    -0.02260
C1202       C  0.83977192  0.01519264  0.48010479     0.07420
C1203       C  0.81704586  0.48838316  0.47416815    -0.02370
C1204       C  0.78977603  0.99360601  0.45505782    -0.02370
C1205       C  0.78446693  0.02495787  0.44104216     0.07560
C1206       C  0.80602371  0.05167699  0.44682403    -0.02570
Br1207     Br  0.79708477  0.09481219  0.42835404    -0.01120
Br1208     Br  0.85911418  0.08626761  0.97609298    -0.01190
Br1209     Br  0.75835109  0.45755468  0.44873587    -0.01150
Br1210     Br  0.82056227  0.44343273  0.49166919    -0.01130
C1211       C  0.61717026  0.46558752  0.13384345    -0.02260
C1212       C  0.58639976  0.45264620  0.14749234     0.07420
C1213       C  0.58376919  0.43986807  0.18061187    -0.02370
C1214       C  0.61197200  0.43912324  0.19935399    -0.02370
C1215       C  0.64207137  0.45376602  0.18596773     0.07560
C1216       C  0.64389549  0.46869190  0.15380955    -0.02570
Br1217     Br  0.68138630  0.49731524  0.13830713    -0.01120
Br1218     Br  0.62344037  0.47856279  0.08737419    -0.01190
Br1219     Br  0.60925768  0.41903449  0.24347518    -0.01150
Br1220     Br  0.54156060  0.42609922  0.20144881    -0.01130
C1221       C  0.79226036  0.44278035  0.18963858    -0.02260
C1222       C  0.76180973  0.44155559  0.17505650     0.07420
C1223       C  0.76255747  0.43963799  0.13996981    -0.02370
C1224       C  0.79290010  0.44441693  0.12102181    -0.02370
C1225       C  0.82208589  0.45411205  0.13616493     0.07560
C1226       C  0.82050446  0.45461550  0.17107014    -0.02570
Br1227     Br  0.85244835  0.47766168  0.19530115    -0.01120
Br1228     Br  0.79598923  0.42705060  0.23502944    -0.01190
Br1229     Br  0.79287171  0.44132178  0.07388687    -0.01150
Br1230     Br  0.72405715  0.42908668  0.11598952    -0.01130
C1231       C  0.71870928  0.03753764  0.31236827    -0.02260
C1232       C  0.72221729  0.01443171  0.33892976     0.07420
C1233       C  0.72228013  0.48060082  0.33286718    -0.02370
C1234       C  0.71681199  0.46986344  0.30122438    -0.02370
C1235       C  0.71284620  0.49285068  0.27478954     0.07560
C1236       C  0.71446884  0.02678166  0.28025092    -0.02570
Br1237     Br  0.71115357  0.05821737  0.24365566    -0.01120
Br1238     Br  0.72050757  0.08383973  0.32002699    -0.01190
Br1239     Br  0.71394802  0.42324939  0.29415208    -0.01150
Br1240     Br  0.73039782  0.44855602  0.36761718    -0.01130
C1241       C  0.89806824  0.13778897  0.08400104    -0.02260
C1242       C  0.88345579  0.10764848  0.09743728     0.07420
C1243       C  0.85124296  0.10683267  0.11208957    -0.02370
C1244       C  0.83365298  0.13597489  0.11258561    -0.02370
C1245       C  0.84722341  0.16554843  0.09629835     0.07560
C1246       C  0.87958396  0.16590202  0.08161555    -0.02570
Br1247     Br  0.89867385  0.20356570  0.05528161    -0.01120
Br1248     Br  0.94414866  0.14101453  0.06920008    -0.01190
Br1249     Br  0.79156377  0.13512324  0.13655967    -0.01150
Br1250     Br  0.83044768  0.06562062  0.12981225    -0.01130
C1251       C  0.86033053  0.30224580  0.12514341    -0.02260
C1252       C  0.85321015  0.28591657  0.09642370     0.07420
C1253       C  0.86942424  0.29662498  0.06603418    -0.02370
C1254       C  0.89171714  0.32396289  0.06410310    -0.02370
C1255       C  0.89818688  0.34111664  0.09245864     0.07560
C1256       C  0.88256059  0.33010879  0.12311393    -0.02570
Br1257     Br  0.88947706  0.35474980  0.16154144    -0.01120
Br1258     Br  0.83852460  0.28719533  0.16675899    -0.01190
Br1259     Br  0.91225301  0.33882994  0.02177622    -0.01150
Br1260     Br  0.86103107  0.27422287  0.02644318    -0.01130
C1261       C  0.55125432  0.13804409  0.05589618    -0.02260
C1262       C  0.53281209  0.12483870  0.03058056     0.07420
C1263       C  0.53478246  0.14185320  0.99910242    -0.02370
C1264       C  0.55619718  0.17033709  0.49309091    -0.02370
C1265       C  0.57284471  0.18366381  0.01928113     0.07560
C1266       C  0.56680557  0.16917272  0.05116143    -0.02570
Br1267     Br  0.57554090  0.19345912  0.08939386    -0.01120
Br1268     Br  0.56083019  0.11347928  0.09601703    -0.01190
Br1269     Br  0.56276429  0.19104771  0.44941642    -0.01150
Br1270     Br  0.01120048  0.12474014  0.46337129    -0.01130
C1271       C  0.58248488  0.36301477  0.02171036    -0.02260
C1272       C  0.54944158  0.36126882  0.03401119     0.07420
C1273       C  0.53447555  0.33028360  0.04453982    -0.02370
C1274       C  0.55240365  0.30172822  0.04325947    -0.02370
C1275       C  0.58435810  0.30281637  0.02739021     0.07560
C1276       C  0.59901535  0.33391113  0.01606646    -0.02570
Br1277     Br  0.64089800  0.33741609  0.99142952    -0.01120
Br1278     Br  0.60679875  0.40478273  0.01776024    -0.01190
Br1279     Br  0.53319608  0.26221992  0.06648464    -0.01150
Br1280     Br  0.98905293  0.32639908  0.06141929    -0.01130
C1281       C  0.68962244  0.21433891  0.07238290    -0.02260
C1282       C  0.68298977  0.23294924  0.04329926     0.07420
C1283       C  0.70973087  0.24873311  0.02420195    -0.02370
C1284       C  0.74225904  0.24667769  0.03446588    -0.02370
C1285       C  0.74850187  0.22942144  0.06444044     0.07560
C1286       C  0.72181008  0.21365954  0.08343356    -0.02570
Br1287     Br  0.72872686  0.19322315  0.12629634    -0.01120
Br1288     Br  0.65536159  0.18919954  0.09786149    -0.01190
Br1289     Br  0.77809072  0.26688944  0.00665882    -0.01150
Br1290     Br  0.70203667  0.27175865  0.98282022    -0.01130
C1291       C  0.60174697  0.27147275  0.02311348     0.02720
C1292       C  0.63386378  0.26741411  0.53384049    -0.13430
C1293       C  0.64841477  0.23662982  0.53298464     0.00220
C1294       C  0.62928037  0.20927626  0.52386364    -0.11960
C1295       C  0.59654672  0.21264496  0.01503685     0.02710
C1296       C  0.58434685  0.24407964  0.01168529    -0.11380
H1297       H  0.64732969  0.28790713  0.54365233     0.08310
H1298       H  0.63900862  0.18497185  0.52584394     0.05840
H1299       H  0.55945561  0.24651798  0.00403852     0.05680
C1300       C  0.82864898  0.19643479  0.59509204     0.02720
C1301       C  0.84384961  0.22562538  0.60505454    -0.13430
C1302       C  0.83081757  0.25610435  0.59763918     0.00220
C1303       C  0.79958236  0.25730307  0.58463738    -0.11960
C1304       C  0.78249440  0.22820456  0.57669162     0.02710
C1305       C  0.79782007  0.19791850  0.58088018    -0.11380
H1306       H  0.86778102  0.22498472  0.61547580     0.08310
H1307       H  0.78919747  0.28094067  0.57955942     0.05840
H1308       H  0.78584878  0.17566718  0.57282178     0.05680
C1309       C  0.67247460  0.45357666  0.70427665     0.02720
C1310       C  0.67642572  0.47326684  0.73119213    -0.13430
C1311       C  0.70805312  0.48041138  0.74158492     0.00220
C1312       C  0.73534389  0.47155794  0.72209957    -0.11960
C1313       C  0.73186448  0.44973041  0.69624109     0.02710
C1314       C  0.69976227  0.43846677  0.69031978    -0.11380
H1315       H  0.65522237  0.48304839  0.74378078     0.08310
H1316       H  0.75932000  0.48131957  0.72802011     0.05840
H1317       H  0.69521400  0.41958336  0.67343374     0.05680
C1318       C  0.75407781  0.02982512  0.92325588     0.02960
C1319       C  0.72432978  0.03165559  0.94188102    -0.13430
C1320       C  0.69417042  0.03003848  0.92689669     0.00220
C1321       C  0.69414916  0.02808740  0.89236835    -0.11960
C1322       C  0.72367043  0.02492676  0.87344956     0.02710
C1323       C  0.75370215  0.02626161  0.88904183    -0.11380
H1324       H  0.72460091  0.03167726  0.96852421     0.08310
H1325       H  0.67091109  0.02590197  0.88066437     0.05840
H1326       H  0.77643346  0.02239519  0.87503326     0.05680
C1327       C  0.49535159  0.11881096  0.77504634     0.02720
C1328       C  0.47995803  0.14903863  0.77754883    -0.13430
C1329       C  0.47576264  0.16314192  0.80820342     0.00220
C1330       C  0.48291681  0.14501245  0.83694304    -0.11960
C1331       C  0.49635264  0.11412620  0.83484290     0.02710
C1332       C  0.50583098  0.10311629  0.80398748    -0.11380
H1333       H  0.47090720  0.16157524  0.75598931     0.08310
H1334       H  0.47674217  0.15427134  0.86088236     0.05840
H1335       H  0.51826076  0.08023491  0.80284087     0.05680
C1336       C  0.92830046  0.34150590  0.85824651     0.02720
C1337       C  0.92950641  0.30750011  0.85432983    -0.13430
C1338       C  0.93303917  0.29551910  0.82270319     0.00220
C1339       C  0.93178469  0.31733672  0.79498932    -0.11960
C1340       C  0.93205490  0.35166577  0.79830354     0.02710
C1341       C  0.93104341  0.36335780  0.83017632    -0.11380
H1342       H  0.92940494  0.29055464  0.87578936     0.08310
H1343       H  0.93330474  0.30766599  0.77067213     0.05840
H1344       H  0.93314740  0.38960217  0.83334865     0.05680
O1345       O  0.52736867  0.41276906  0.51573404    -0.80540
O1346       O  0.93316802  0.46309223  0.67072835    -0.82090
O1347       O  0.53521509  0.43437210  0.62587466    -0.79110
O1348       O  0.94307873  0.38044528  0.59967635    -0.77500
O1349       O  0.89916893  0.39454794  0.56986588    -0.79290
O1350       O  0.55565466  0.48728263  0.61495595    -0.80220
O1351       O  0.96585552  0.42315088  0.65425435    -0.81550
O1352       O  0.51849801  0.39293816  0.56926113    -0.81840
Eu1353     Eu  0.98292841  0.42944376  0.59733627     2.39200
O1354       O  0.92983506  0.44928780  0.60033510    -0.89350
O1355       O  0.51817280  0.46314718  0.56093085    -0.92950
C1356       C  0.53108354  0.39128670  0.53983697     1.01740
C1357       C  0.94805632  0.43587940  0.67629005     1.01560
C1358       C  0.55702929  0.45810918  0.62838823     1.01500
C1359       C  0.91471571  0.37417095  0.58763189     0.99360
H1360       H  0.99370714  0.48243034  0.63837193     0.29110
O1361       O  0.98505133  0.48276337  0.61671550    -1.01730
H1362       H  0.96049504  0.40727686  0.53766558     0.29140
O1363       O  0.96130263  0.42945444  0.54502661    -1.04270
O1364       O  0.90415565  0.05552934  0.61517371    -0.81500
O1365       O  0.99447011  0.50104931  0.95851751    -0.81040
O1366       O  0.51470551  0.04856222  0.63063078    -0.79480
O1367       O  0.86081142  0.44850217  0.58947042    -0.82820
O1368       O  0.91311490  0.41970104  0.49646308    -0.80670
O1369       O  0.56845831  0.01581573  0.53928896    -0.79320
O1370       O  0.98511101  0.08711178  0.52676948    -0.80840
O1371       O  0.89264921  0.03210107  0.50122839    -0.82760
O1372       O  0.52948604  0.07122464  0.55427802    -0.79500
O1373       O  0.87038078  0.48117663  0.51557432    -0.82180
O1374       O  0.96267507  0.03776221  0.65425004    -0.77910
O1375       O  0.55070902  0.48760770  0.49654736    -0.77950
O1376       O  0.96546550  0.42926116  0.97351870    -0.77590
O1377       O  0.87427604  0.48295323  0.62925770    -0.81090
O1378       O  0.91196240  0.07492599  0.56131905    -0.80510
O1379       O  0.96408017  0.04474436  0.97242323    -0.78840
Eu1380     Eu  0.93155816  0.50228406  0.62008505     2.39770
Eu1381     Eu  0.99589760  0.46396264  0.50880239     2.39570
Eu1382     Eu  0.51955768  0.01680586  0.57970259     2.38400
Eu1383     Eu  0.90826517  0.45047573  0.54797161     2.39880
Eu1384     Eu  0.94497324  0.03806272  0.53005652     2.39790
O1385       O  0.94265855  0.48443891  0.51099137    -0.93260
O1386       O  0.96612974  0.03685702  0.58297437    -0.92150
C1387       C  0.90071807  0.07716137  0.59124555     1.01910
C1388       C  0.98156617  0.02892503  0.95190102     1.00630
C1389       C  0.99183308  0.05135984  0.65361848     1.00020
C1390       C  0.85416475  0.46255191  0.61671676     1.02040
C1391       C  0.93637628  0.41557574  0.97421624     1.00950
C1392       C  0.57285003  0.50458916  0.51014204     0.99800
C1393       C  0.51438993  0.09242433  0.53721460     0.99860
C1394       C  0.86943960  0.00940633  0.50024585     1.02470
H1395       H  0.51131158  0.03112277  0.51244098     0.29850
O1396       O  0.99743694  0.01713240  0.52781013    -1.05420
H1397       H  0.88836174  0.01211788  0.56833741     0.31900
O1398       O  0.91026177  0.50396389  0.56714652    -1.07980
C1399       C  0.92666060  0.42602692  0.73688184    -0.02260
C1400       C  0.94522441  0.41608390  0.70899672     0.07420
C1401       C  0.96153834  0.38562424  0.71282334    -0.02370
C1402       C  0.96114885  0.36873167  0.74376451    -0.02370
C1403       C  0.93717512  0.37497695  0.76849260     0.07560
C1404       C  0.91910730  0.40363415  0.76425158    -0.02570
Br1405     Br  0.88222528  0.41191868  0.79375314    -0.01120
Br1406     Br  0.91570799  0.47098511  0.74144994    -0.01190
Br1407     Br  0.99623410  0.33956404  0.75271225    -0.01150
Br1408     Br  0.98354450  0.36314158  0.67735115    -0.01130
C1409       C  0.95256280  0.35077975  0.91287258    -0.02260
C1410       C  0.92685059  0.35523502  0.89139213     0.07420
C1411       C  0.90182604  0.37665256  0.89972247    -0.02370
C1412       C  0.90502475  0.39699009  0.92634750    -0.02370
C1413       C  0.93068427  0.39271858  0.94775438     0.07560
C1414       C  0.95371017  0.36851169  0.94153398    -0.02570
Br1415     Br  0.98806797  0.36025328  0.97143942    -0.01120
Br1416     Br  0.98801071  0.32264016  0.90237925    -0.01190
Br1417     Br  0.87797440  0.43421810  0.92939167    -0.01150
Br1418     Br  0.86269959  0.37769627  0.87511244    -0.01130
C1419       C  0.99535655  0.05097963  0.71382909    -0.02260
C1420       C  0.99905119  0.06905263  0.68336992     0.07420
C1421       C  0.50239388  0.10363316  0.68302466    -0.02370
C1422       C  0.50603347  0.11936239  0.71274469    -0.02370
C1423       C  0.49770299  0.10174394  0.74330186     0.07560
C1424       C  0.49039592  0.06727324  0.74304545    -0.02570
Br1425     Br  0.46805751  0.04216588  0.78012153    -0.01120
Br1426     Br  0.99558478  0.50354068  0.71530822    -0.01190
Br1427     Br  0.52401417  0.16419409  0.71047562    -0.01150
Br1428     Br  0.99526169  0.12994626  0.64373186    -0.01130
C1429       C  0.51833182  0.05805386  0.90718676    -0.02260
C1430       C  0.98681179  0.04509770  0.91866618     0.07420
C1431       C  0.95904190  0.05326966  0.90132170    -0.02370
C1432       C  0.96238671  0.07590378  0.87401048    -0.02370
C1433       C  0.49365496  0.09032583  0.86363922     0.07560
C1434       C  0.52176075  0.08054392  0.87953230    -0.02570
Br1435     Br  0.56460023  0.09924511  0.86435509    -0.01120
Br1436     Br  0.55647377  0.54723342  0.93071470    -0.01190
Br1437     Br  0.92384215  0.08704730  0.85083988    -0.01150
Br1438     Br  0.91618065  0.03347126  0.91527901    -0.01130
C1439       C  0.93084936  0.20363574  0.80870795    -0.02260
C1440       C  0.96440004  0.19701855  0.81054869     0.07420
C1441       C  0.48750883  0.22274820  0.81578364    -0.02370
C1442       C  0.97713069  0.25483561  0.81962215    -0.02370
C1443       C  0.94345645  0.26145889  0.81849292     0.07560
C1444       C  0.92039618  0.23583734  0.81269741    -0.02570
Br1445     Br  0.87457433  0.24499166  0.81052841    -0.01120
Br1446     Br  0.89928829  0.16843468  0.80136546    -0.01190
Br1447     Br  0.50946839  0.28972568  0.82585751    -0.01150
Br1448     Br  0.53367252  0.21399234  0.81722016    -0.01130
C1449       C  0.65317667  0.04724776  0.97108285    -0.02260
C1450       C  0.66306297  0.02441111  0.94800827     0.07420
C1451       C  0.64391905  0.99499753  0.94601519    -0.02370
C1452       C  0.61396463  0.98951184  0.96463838    -0.02370
C1453       C  0.60469114  0.01125824  0.98970978     0.07560
C1454       C  0.62474465  0.04043083  0.49241473    -0.02570
Br1455     Br  0.61232478  0.07326433  0.52270711    -0.01120
Br1456     Br  0.67799370  0.08871460  0.47248120    -0.01190
Br1457     Br  0.58586513  0.45288641  0.95189916    -0.01150
Br1458     Br  0.65959715  0.96037373  0.91930116    -0.01130
C1459       C  0.83323112  0.04718804  0.96656615    -0.02260
C1460       C  0.83977231  0.01518688  0.98010631     0.07420
C1461       C  0.81704479  0.48838166  0.97416604    -0.02370
C1462       C  0.78977926  0.99359784  0.95505635    -0.02370
C1463       C  0.78446706  0.02495031  0.94104381     0.07560
C1464       C  0.80602104  0.05167071  0.94682870    -0.02570
Br1465     Br  0.79707839  0.09480642  0.92836263    -0.01120
Br1466     Br  0.85912209  0.08627190  0.47608176    -0.01190
Br1467     Br  0.75835144  0.45755297  0.94873143    -0.01150
Br1468     Br  0.82056245  0.44343073  0.99166552    -0.01130
C1469       C  0.61717082  0.46557210  0.63383725    -0.02260
C1470       C  0.58639848  0.45264343  0.64749287     0.07420
C1471       C  0.58376722  0.43987984  0.68061706    -0.02370
C1472       C  0.61197152  0.43913306  0.69935683    -0.02370
C1473       C  0.64207394  0.45376298  0.68596338     0.07560
C1474       C  0.64389912  0.46867653  0.65379968    -0.02570
Br1475     Br  0.68139542  0.49728606  0.63828363    -0.01120
Br1476     Br  0.62343703  0.47853377  0.58736467    -0.01190
Br1477     Br  0.60925491  0.41905832  0.74348389    -0.01150
Br1478     Br  0.54155576  0.42613904  0.70146357    -0.01130
C1479       C  0.79226621  0.44279191  0.68964022    -0.02260
C1480       C  0.76181464  0.44154934  0.67506076     0.07420
C1481       C  0.76256307  0.43961694  0.63997537    -0.02370
C1482       C  0.79290542  0.44439655  0.62102615    -0.02370
C1483       C  0.82208760  0.45411447  0.63616449     0.07560
C1484       C  0.82050274  0.45464033  0.67106837    -0.02570
Br1485     Br  0.85241240  0.47775087  0.69528817    -0.01120
Br1486     Br  0.79600864  0.42707248  0.73503166    -0.01190
Br1487     Br  0.79287847  0.44127040  0.57389463    -0.01150
Br1488     Br  0.72406592  0.42904263  0.61599886    -0.01130
C1489       C  0.71870992  0.03753133  0.81237012    -0.02260
C1490       C  0.72221535  0.01442491  0.83893185     0.07420
C1491       C  0.72227858  0.48060170  0.83286415    -0.02370
C1492       C  0.71681067  0.46986490  0.80122110    -0.02370
C1493       C  0.71284575  0.49285260  0.77478640     0.07560
C1494       C  0.71446838  0.02677573  0.78025277    -0.02570
Br1495     Br  0.71115877  0.05821181  0.74365679    -0.01120
Br1496     Br  0.72051408  0.08383347  0.82002836    -0.01190
Br1497     Br  0.71394638  0.42325094  0.79414814    -0.01150
Br1498     Br  0.73039544  0.44855621  0.86761381    -0.01130
C1499       C  0.89806813  0.13778601  0.58400468    -0.02260
C1500       C  0.88345418  0.10764515  0.59743834     0.07420
C1501       C  0.85124034  0.10682950  0.61208812    -0.02370
C1502       C  0.83365110  0.13597226  0.61258453    -0.02370
C1503       C  0.84722312  0.16554629  0.59629937     0.07560
C1504       C  0.87958458  0.16589959  0.58161871    -0.02570
Br1505     Br  0.89867682  0.20356344  0.55528651    -0.01120
Br1506     Br  0.94414967  0.14101117  0.56920779    -0.01190
Br1507     Br  0.79156070  0.13512047  0.63655637    -0.01150
Br1508     Br  0.83044274  0.06561706  0.62980660    -0.01130
C1509       C  0.86033294  0.30224427  0.62514290    -0.02260
C1510       C  0.85321173  0.28591487  0.59642349     0.07420
C1511       C  0.86942529  0.29662299  0.56603358    -0.02370
C1512       C  0.89171774  0.32396133  0.56410169    -0.02370
C1513       C  0.89818828  0.34111513  0.59245698     0.07560
C1514       C  0.88256348  0.33010694  0.62311282    -0.02570
Br1515     Br  0.88948379  0.35474648  0.66154062    -0.01120
Br1516     Br  0.83852756  0.28719451  0.66675894    -0.01190
Br1517     Br  0.91225259  0.33882827  0.52177431    -0.01150
Br1518     Br  0.86103244  0.27421949  0.52644331    -0.01130
C1519       C  0.55125709  0.13804240  0.55589633    -0.02260
C1520       C  0.53281444  0.12483697  0.53058107     0.07420
C1521       C  0.53478391  0.14185171  0.49910304    -0.02370
C1522       C  0.55619597  0.17033846  0.99309058    -0.02370
C1523       C  0.57284619  0.18366251  0.51928123     0.07560
C1524       C  0.56680753  0.16917136  0.55116155    -0.02570
Br1525     Br  0.57554159  0.19345822  0.58939393    -0.01120
Br1526     Br  0.56083497  0.11347737  0.59601638    -0.01190
Br1527     Br  0.56276391  0.19104896  0.94941611    -0.01150
Br1528     Br  0.01120464  0.12473960  0.96337016    -0.01130
C1529       C  0.58248467  0.36301350  0.52170667    -0.02260
C1530       C  0.54944126  0.36126737  0.53400703     0.07420
C1531       C  0.53447528  0.33028212  0.54453572    -0.02370
C1532       C  0.55240388  0.30172702  0.54325663    -0.02370
C1533       C  0.58435856  0.30281527  0.52738792     0.07560
C1534       C  0.59901554  0.33390996  0.51606361    -0.02570
Br1535     Br  0.64089849  0.33741496  0.49142725    -0.01120
Br1536     Br  0.60679809  0.40478166  0.51775607    -0.01190
Br1537     Br  0.53319683  0.26221915  0.56648307    -0.01150
Br1538     Br  0.98905375  0.32639729  0.56141739    -0.01130
C1539       C  0.68962321  0.21433938  0.57238335    -0.02260
C1540       C  0.68299068  0.23294918  0.54329933     0.07420
C1541       C  0.70973189  0.24873265  0.52420184    -0.02370
C1542       C  0.74226004  0.24667714  0.53446581    -0.02370
C1543       C  0.74850277  0.22942110  0.56444052     0.07560
C1544       C  0.72181084  0.21365991  0.58343399    -0.02570
Br1545     Br  0.72872746  0.19322454  0.62629726    -0.01120
Br1546     Br  0.65536217  0.18920089  0.59786250    -0.01190
Br1547     Br  0.77809181  0.26688864  0.50665871    -0.01150
Br1548     Br  0.70203782  0.27175771  0.48281982    -0.01130
C1549       C  0.60174798  0.77147150  0.52311426     0.02720
C1550       C  0.63386353  0.76741569  0.03384260    -0.13430
C1551       C  0.64841462  0.73663148  0.03298654     0.00220
C1552       C  0.62928012  0.70927782  0.02386582    -0.11960
C1553       C  0.59654775  0.71264355  0.51503867     0.02710
C1554       C  0.58434767  0.74407809  0.51168690    -0.11380
H1555       H  0.64732952  0.78790872  0.04365435     0.08310
H1556       H  0.63900845  0.68497344  0.02584611     0.05840
H1557       H  0.55945625  0.74651619  0.50404058     0.05680
C1558       C  0.82864917  0.69643623  0.09509282     0.02720
C1559       C  0.84385004  0.72562671  0.10505524    -0.13430
C1560       C  0.83081807  0.75610576  0.09764016     0.00220
C1561       C  0.79958288  0.75730470  0.08463831    -0.11960
C1562       C  0.78249472  0.72820627  0.07669259     0.02710
C1563       C  0.79782019  0.69792011  0.08088111    -0.11380
H1564       H  0.86778147  0.72498589  0.11547646     0.08310
H1565       H  0.78919806  0.78094236  0.07956050     0.05840
H1566       H  0.78584869  0.67566884  0.07282286     0.05680
C1567       C  0.67246903  0.95358775  0.20427817     0.02720
C1568       C  0.67642460  0.97326986  0.23119880    -0.13430
C1569       C  0.70805446  0.98041506  0.24158582     0.00220
C1570       C  0.73534279  0.97156674  0.22209296    -0.11960
C1571       C  0.73185714  0.94975062  0.19622637     0.02710
C1572       C  0.69975526  0.93848799  0.19030600    -0.11380
H1573       H  0.65522252  0.98304589  0.24379505     0.08310
H1574       H  0.75932283  0.98131922  0.22801359     0.05840
H1575       H  0.69520811  0.91961542  0.17340653     0.05680
C1576       C  0.75407786  0.52983063  0.42325508     0.02960
C1577       C  0.72432974  0.53166009  0.44188042    -0.13430
C1578       C  0.69417021  0.53004101  0.42689648     0.00220
C1579       C  0.69414881  0.52808937  0.39236824    -0.11960
C1580       C  0.72367015  0.52492966  0.37344931     0.02710
C1581       C  0.75370204  0.52626626  0.38904119    -0.11380
H1582       H  0.72460107  0.53168209  0.46852359     0.08310
H1583       H  0.67091071  0.52590276  0.38066448     0.05840
H1584       H  0.77643341  0.52240029  0.37503252     0.05680
C1585       C  0.49534844  0.61881276  0.27504713     0.02720
C1586       C  0.47995384  0.64903998  0.27754908    -0.13430
C1587       C  0.47575761  0.66314368  0.30820341     0.00220
C1588       C  0.48291220  0.64501481  0.33694339    -0.11960
C1589       C  0.49634926  0.61412897  0.33484378     0.02710
C1590       C  0.50582812  0.60311892  0.30398854    -0.11380
H1591       H  0.47090291  0.66157594  0.25598925     0.08310
H1592       H  0.47673707  0.65427386  0.36088253     0.05840
H1593       H  0.51825874  0.58023800  0.30284228     0.05680
C1594       C  0.92830165  0.84150631  0.35824651     0.02720
C1595       C  0.92950206  0.80750050  0.35432883    -0.13430
C1596       C  0.93302956  0.79552030  0.32270160     0.00220
C1597       C  0.93177257  0.81733935  0.29498892    -0.11960
C1598       C  0.93205313  0.85166914  0.29830383     0.02710
C1599       C  0.93104905  0.86335928  0.33017738    -0.11380
H1600       H  0.92940059  0.79055429  0.37578778     0.08310
H1601       H  0.93328423  0.80766833  0.27067172     0.05840
H1602       H  0.93316242  0.88960275  0.33335191     0.05680
O1603       O  0.52736805  0.91277003  0.01573726    -0.80540
O1604       O  0.93317129  0.96310045  0.17073443    -0.82090
O1605       O  0.53521704  0.93437493  0.12587174    -0.79110
O1606       O  0.94307792  0.88044886  0.09968209    -0.77500
O1607       O  0.89916993  0.89454851  0.06986778    -0.79290
O1608       O  0.55564956  0.98728771  0.11495632    -0.80220
O1609       O  0.96587202  0.92316782  0.15426268    -0.81550
O1610       O  0.51849727  0.89294093  0.06926492    -0.81840
Eu1611     Eu  0.98292810  0.92944805  0.09733943     2.39200
O1612       O  0.92983272  0.94928995  0.10034137    -0.89350
O1613       O  0.51817348  0.96314934  0.06093191    -0.92950
C1614       C  0.53108303  0.89128850  0.03984090     1.01740
C1615       C  0.94806734  0.93589230  0.17629701     1.01560
C1616       C  0.55702831  0.95811408  0.12838663     1.01500
C1617       C  0.91471589  0.87417291  0.08763599     0.99360
H1618       H  0.99370610  0.98243823  0.13836911     0.29110
O1619       O  0.98504872  0.98276942  0.11671378    -1.01730
H1620       H  0.96049553  0.90727891  0.03766979     0.29140
O1621       O  0.96130296  0.92945644  0.04502987    -1.04270
O1622       O  0.90415501  0.55553031  0.11517494    -0.81500
O1623       O  0.99447177  0.00104853  0.45851659    -0.81040
O1624       O  0.51470464  0.54856311  0.13063174    -0.79480
O1625       O  0.86081747  0.94849460  0.08948057    -0.82820
O1626       O  0.91311600  0.91970209  0.99646567    -0.80670
O1627       O  0.56845743  0.51581611  0.03928968    -0.79320
O1628       O  0.98511029  0.58711268  0.02677030    -0.80840
O1629       O  0.89264765  0.53210121  0.00122931    -0.82760
O1630       O  0.52948542  0.57122542  0.05427862    -0.79500
O1631       O  0.87037636  0.98117414  0.01558142    -0.82180
O1632       O  0.96267434  0.53776303  0.15425117    -0.77910
O1633       O  0.55070852  0.98760777  0.99654711    -0.77950
O1634       O  0.96546674  0.92926005  0.47351813    -0.77590
O1635       O  0.87426252  0.98297504  0.12925371    -0.81090
O1636       O  0.91196132  0.57492687  0.06132021    -0.80510
O1637       O  0.96408127  0.54474466  0.47242370    -0.78840
Eu1638     Eu  0.93155490  0.00228931  0.12008818     2.39770
Eu1639     Eu  0.99589739  0.96396361  0.00880391     2.39570
Eu1640     Eu  0.51955680  0.51680681  0.07970335     2.38400
Eu1641     Eu  0.90826543  0.95047632  0.04797548     2.39880
Eu1642     Eu  0.94497198  0.53806362  0.03005766     2.39790
O1643       O  0.94265752  0.98443858  0.01099281    -0.93260
O1644       O  0.96612874  0.53685801  0.08297549    -0.92150
C1645       C  0.90071734  0.57716235  0.09124680     1.01910
C1646       C  0.98156694  0.52892570  0.45190095     1.00630
C1647       C  0.99183229  0.55136085  0.15361944     1.00020
C1648       C  0.85416334  0.96255486  0.11671949     1.02040
C1649       C  0.93637753  0.91557463  0.47421578     1.00950
C1650       C  0.57284922  0.00459006  0.01014121     0.99800
C1651       C  0.51438933  0.59242520  0.03721533     0.99860
C1652       C  0.86943820  0.50940616  0.00024680     1.02470
H1653       H  0.51131034  0.53112370  0.01244183     0.29850
O1654       O  0.99743571  0.51713333  0.02781106    -1.05420
H1655       H  0.88836077  0.51211854  0.06833864     0.31900
O1656       O  0.91026114  0.00396536  0.06714801    -1.07980
C1657       C  0.92670175  0.92605298  0.23689892    -0.02260
C1658       C  0.94523450  0.91609404  0.20900145     0.07420
C1659       C  0.96152002  0.88561692  0.21281480    -0.02370
C1660       C  0.96113401  0.86872092  0.24375369    -0.02370
C1661       C  0.93717740  0.87498164  0.26849321     0.07560
C1662       C  0.91913529  0.90365859  0.26426458    -0.02570
Br1663     Br  0.88226858  0.91197214  0.29377322    -0.01120
Br1664     Br  0.91583833  0.97103323  0.24149930    -0.01190
Br1665     Br  0.99620721  0.83953238  0.25268136    -0.01150
Br1666     Br  0.98348277  0.86311786  0.17732863    -0.01130
C1667       C  0.95256365  0.85077837  0.41287254    -0.02260
C1668       C  0.92685171  0.85523430  0.39139220     0.07420
C1669       C  0.90182723  0.87665190  0.39972224    -0.02370
C1670       C  0.90502573  0.89698899  0.42634753    -0.02370
C1671       C  0.93068545  0.89271741  0.44775419     0.07560
C1672       C  0.95371131  0.86851041  0.44153379    -0.02570
Br1673     Br  0.98806933  0.86025191  0.47143887    -0.01120
Br1674     Br  0.98801025  0.82263728  0.40237898    -0.01190
Br1675     Br  0.87797472  0.93421644  0.42939249    -0.01150
Br1676     Br  0.86270187  0.87769688  0.37511029    -0.01130
C1677       C  0.99535610  0.55098093  0.21383004    -0.02260
C1678       C  0.99905038  0.56905388  0.18337083     0.07420
C1679       C  0.50239256  0.60363430  0.18302561    -0.02370
C1680       C  0.50603147  0.61936375  0.21274564    -0.02370
C1681       C  0.49770090  0.60174540  0.24330282     0.07560
C1682       C  0.49039481  0.56727450  0.24304655    -0.02570
Br1683     Br  0.46805722  0.54216671  0.28012280    -0.01120
Br1684     Br  0.99566914  0.00354906  0.21528922    -0.01190
Br1685     Br  0.52401139  0.66419573  0.21047672    -0.01150
Br1686     Br  0.99526073  0.62994739  0.14373254    -0.01130
C1687       C  0.51833133  0.55805676  0.40718696    -0.02260
C1688       C  0.98681183  0.54509905  0.41866630     0.07420
C1689       C  0.95904143  0.55327018  0.40132225    -0.02370
C1690       C  0.96238503  0.57590511  0.37401161    -0.02370
C1691       C  0.49365269  0.59032874  0.36364038     0.07560
C1692       C  0.52175911  0.58054750  0.37953293    -0.02570
Br1693     Br  0.56459790  0.59925016  0.36435544    -0.01120
Br1694     Br  0.55647509  0.04723763  0.43071708    -0.01190
Br1695     Br  0.92383973  0.58704720  0.35084158    -0.01150
Br1696     Br  0.91618119  0.53346916  0.41527925    -0.01130
C1697       C  0.93084255  0.70363607  0.30870780    -0.02260
C1698       C  0.96439365  0.69702013  0.31054778     0.07420
C1699       C  0.48750188  0.72275112  0.31578055    -0.02370
C1700       C  0.97712260  0.75483848  0.31961749    -0.02370
C1701       C  0.94344785  0.76146044  0.31848949     0.07560
C1702       C  0.92038826  0.73583755  0.31269617    -0.02570
Br1703     Br  0.87456581  0.74498980  0.31052917    -0.01120
Br1704     Br  0.89928244  0.66843334  0.30136794    -0.01190
Br1705     Br  0.50945966  0.78973044  0.32584946    -0.01150
Br1706     Br  0.53366601  0.71399701  0.31721649    -0.01130
C1707       C  0.65317654  0.54724870  0.47108352    -0.02260
C1708       C  0.66306301  0.52441266  0.44800837     0.07420
C1709       C  0.64391931  0.49499897  0.44601483    -0.02370
C1710       C  0.61396490  0.48951278  0.46463794    -0.02370
C1711       C  0.60469159  0.51125827  0.48971019     0.07560
C1712       C  0.62474440  0.54042956  0.99241506    -0.02570
Br1713     Br  0.61232556  0.57326365  0.02270720    -0.01120
Br1714     Br  0.67799469  0.58871173  0.97248091    -0.01190
Br1715     Br  0.58586783  0.95288754  0.45189739    -0.01150
Br1716     Br  0.65959760  0.46037550  0.41930051    -0.01130
C1717       C  0.83323420  0.54719303  0.46656138    -0.02260
C1718       C  0.83977285  0.51519264  0.48010560     0.07420
C1719       C  0.81704483  0.98838362  0.47416656    -0.02370
C1720       C  0.78977717  0.49360449  0.45505892    -0.02370
C1721       C  0.78446723  0.52495598  0.44104296     0.07560
C1722       C  0.80602346  0.55167568  0.44682460    -0.02570
Br1723     Br  0.79708311  0.59481046  0.42835464    -0.01120
Br1724     Br  0.85911769  0.58627123  0.97608395    -0.01190
Br1725     Br  0.75834878  0.95755722  0.44873511    -0.01150
Br1726     Br  0.82056191  0.94343237  0.49166519    -0.01130
C1727       C  0.61716531  0.96560685  0.13384791    -0.02260
C1728       C  0.58639772  0.95265223  0.14749204     0.07420
C1729       C  0.58376877  0.93986618  0.18060906    -0.02370
C1730       C  0.61197128  0.93912485  0.19935183    -0.02370
C1731       C  0.64206646  0.95378077  0.18597005     0.07560
C1732       C  0.64388666  0.96871801  0.15381730    -0.02570
Br1733     Br  0.68136454  0.99736548  0.13832952    -0.01120
Br1734     Br  0.62343864  0.97858943  0.08738057    -0.01190
Br1735     Br  0.60926197  0.91902497  0.24346824    -0.01150
Br1736     Br  0.54156278  0.92608097  0.20144215    -0.01130
C1737       C  0.79224976  0.94275601  0.18963005    -0.02260
C1738       C  0.76180206  0.94157239  0.17504060     0.07420
C1739       C  0.76254997  0.93968782  0.13995104    -0.02370
C1740       C  0.79289331  0.94446991  0.12100663    -0.02370
C1741       C  0.82208705  0.95411004  0.13616246     0.07560
C1742       C  0.82051231  0.95455989  0.17107069    -0.02570
Br1743     Br  0.85253467  0.97745548  0.19532883    -0.01120
Br1744     Br  0.79594462  0.92700228  0.23501986    -0.01190
Br1745     Br  0.79286170  0.94145886  0.07386240    -0.01150
Br1746     Br  0.72404631  0.92917380  0.11596240    -0.01130
C1747       C  0.71870879  0.53753283  0.31236989    -0.02260
C1748       C  0.72221514  0.51442703  0.33893191     0.07420
C1749       C  0.72228492  0.98060577  0.33286424    -0.02370
C1750       C  0.71681808  0.96986863  0.30122106    -0.02370
C1751       C  0.71285125  0.99285597  0.27478665     0.07560
C1752       C  0.71446718  0.52677651  0.28025284    -0.02570
Br1753     Br  0.71115648  0.55821185  0.24365646    -0.01120
Br1754     Br  0.72051169  0.58383514  0.32002739    -0.01190
Br1755     Br  0.71395505  0.92325476  0.29414821    -0.01150
Br1756     Br  0.73040300  0.94856086  0.36761399    -0.01130
C1757       C  0.89806784  0.63778698  0.08400563    -0.02260
C1758       C  0.88345378  0.60764629  0.09743965     0.07420
C1759       C  0.85124003  0.60683094  0.11208960    -0.02370
C1760       C  0.83365096  0.63597380  0.11258579    -0.02370
C1761       C  0.84722305  0.66554760  0.09630024     0.07560
C1762       C  0.87958440  0.66590061  0.08161941    -0.02570
Br1763     Br  0.89867657  0.70356409  0.05528661    -0.01120
Br1764     Br  0.94414930  0.64101184  0.06920850    -0.01190
Br1765     Br  0.79156068  0.63512251  0.13655781    -0.01150
Br1766     Br  0.83044232  0.56561873  0.12980858    -0.01130
C1767       C  0.86033090  0.80224639  0.12514508    -0.02260
C1768       C  0.85321213  0.78591631  0.09642548     0.07420
C1769       C  0.86942718  0.79662441  0.06603636    -0.02370
C1770       C  0.89172007  0.82396240  0.06410569    -0.02370
C1771       C  0.89818864  0.84111683  0.09246119     0.07560
C1772       C  0.88256032  0.83010993  0.12311589    -0.02570
Br1773     Br  0.88947138  0.85475388  0.16154246    -0.01120
Br1774     Br  0.83852340  0.78719643  0.16676007    -0.01190
Br1775     Br  0.91225640  0.83882938  0.02177900    -0.01150
Br1776     Br  0.86103461  0.77422213  0.02644525    -0.01130
C1777       C  0.55125654  0.63804310  0.05589758    -0.02260
C1778       C  0.53281402  0.62483790  0.03058208     0.07420
C1779       C  0.53478401  0.64185279  0.99910413    -0.02370
C1780       C  0.55619601  0.67033747  0.49309286    -0.02370
C1781       C  0.57284594  0.68366366  0.01928307     0.07560
C1782       C  0.56680710  0.66917208  0.05116319    -0.02570
Br1783     Br  0.57554116  0.69345838  0.08939591    -0.01120
Br1784     Br  0.56083423  0.61347764  0.09601746    -0.01190
Br1785     Br  0.56276106  0.69104958  0.44941886    -0.01150
Br1786     Br  0.01120234  0.62474011  0.46337369    -0.01130
C1787       C  0.58248444  0.86301520  0.02171084    -0.02260
C1788       C  0.54944117  0.86126911  0.03401180     0.07420
C1789       C  0.53447541  0.83028383  0.04454070    -0.02370
C1790       C  0.55240375  0.80172856  0.04326049    -0.02370
C1791       C  0.58435813  0.80281682  0.02739106     0.07560
C1792       C  0.59901509  0.83391163  0.01606702    -0.02570
Br1793     Br  0.64089762  0.83741672  0.99142981    -0.01120
Br1794     Br  0.60679809  0.90478330  0.01776063    -0.01190
Br1795     Br  0.53319670  0.76222030  0.06648617    -0.01150
Br1796     Br  0.98905453  0.82639917  0.06142428    -0.01130
C1797       C  0.68962329  0.71434202  0.07238551    -0.02260
C1798       C  0.68299067  0.73295100  0.04330103     0.07420
C1799       C  0.70973188  0.74873393  0.02420305    -0.02370
C1800       C  0.74226015  0.74667842  0.03446682    -0.02370
C1801       C  0.74850296  0.72942294  0.06444179     0.07560
C1802       C  0.72181105  0.71366244  0.08343584    -0.02570
Br1803     Br  0.72872799  0.69322786  0.12629937    -0.01120
Br1804     Br  0.65536202  0.68920514  0.09786592    -0.01190
Br1805     Br  0.77809207  0.76688913  0.00665927    -0.01150
Br1806     Br  0.70203760  0.77175852  0.98282086    -0.01130
C1807       C  0.60174734  0.77147329  0.02311469     0.02720
C1808       C  0.63386427  0.76741372  0.53384182    -0.13430
C1809       C  0.64841511  0.73662938  0.53298561     0.00220
C1810       C  0.62928036  0.70927593  0.52386491    -0.11960
C1811       C  0.59654762  0.71264520  0.01503908     0.02710
C1812       C  0.58434743  0.74407974  0.01168703    -0.11380
H1813       H  0.64733053  0.78790671  0.54365335     0.08310
H1814       H  0.63900858  0.68497149  0.52584489     0.05840
H1815       H  0.55945616  0.74651769  0.00404024     0.05680
C1816       C  0.82864992  0.69643373  0.59509195     0.02720
C1817       C  0.84385040  0.72562449  0.60505432    -0.13430
C1818       C  0.83081822  0.75610339  0.59763882     0.00220
C1819       C  0.79958308  0.75730191  0.58463688    -0.11960
C1820       C  0.78249526  0.72820331  0.57669120     0.02710
C1821       C  0.79782102  0.69791730  0.58087996    -0.11380
H1822       H  0.86778169  0.72498403  0.61547582     0.08310
H1823       H  0.78919806  0.78093944  0.57955887     0.05840
H1824       H  0.78584978  0.67566591  0.57282168     0.05680
C1825       C  0.67247269  0.95357576  0.70427959     0.02720
C1826       C  0.67642465  0.97326328  0.73119684    -0.13430
C1827       C  0.70805275  0.98040913  0.74158751     0.00220
C1828       C  0.73534293  0.97155845  0.72209939    -0.11960
C1829       C  0.73186212  0.94973426  0.69623850     0.02710
C1830       C  0.69976028  0.93846966  0.69031795    -0.11380
H1831       H  0.65522135  0.98304230  0.74378804     0.08310
H1832       H  0.75931996  0.98131837  0.72801955     0.05840
H1833       H  0.69521284  0.91958941  0.67342781     0.05680
C1834       C  0.75407706  0.52982962  0.92325288     0.02960
C1835       C  0.72432902  0.53165952  0.94187819    -0.13430
C1836       C  0.69416950  0.53004120  0.92689421     0.00220
C1837       C  0.69414806  0.52808980  0.89236593    -0.11960
C1838       C  0.72366936  0.52492990  0.87344693     0.02710
C1839       C  0.75370123  0.52626571  0.88903891    -0.11380
H1840       H  0.72460033  0.53168139  0.96852136     0.08310
H1841       H  0.67090993  0.52590363  0.88066216     0.05840
H1842       H  0.77643255  0.52239960  0.87503022     0.05680
C1843       C  0.49534544  0.61881134  0.77504854     0.02720
C1844       C  0.47995682  0.64904159  0.77754977    -0.13430
C1845       C  0.47576258  0.66314573  0.80820405     0.00220
C1846       C  0.48291641  0.64501641  0.83694410    -0.11960
C1847       C  0.49634883  0.61412832  0.83484478     0.02710
C1848       C  0.50582273  0.60311515  0.80398961    -0.11380
H1849       H  0.47090821  0.66157890  0.75598942     0.08310
H1850       H  0.47674345  0.65427666  0.86088318     0.05840
H1851       H  0.51824601  0.58022991  0.80284303     0.05680
C1852       C  0.92830188  0.84150779  0.85824687     0.02720
C1853       C  0.92950557  0.80750192  0.85433006    -0.13430
C1854       C  0.93303616  0.79552092  0.82270332     0.00220
C1855       C  0.93178036  0.81733869  0.79498973    -0.11960
C1856       C  0.93205424  0.85166801  0.79830379     0.02710
C1857       C  0.93104595  0.86335978  0.83017671    -0.11380
H1858       H  0.92940405  0.79055628  0.87578945     0.08310
H1859       H  0.93329706  0.80766755  0.77067265     0.05840
H1860       H  0.93315318  0.88960392  0.83334937     0.05680
O1861       O  0.52736970  0.91276872  0.51573646    -0.80540
O1862       O  0.93316670  0.96309384  0.67072854    -0.82090
O1863       O  0.53521817  0.93437251  0.62587232    -0.79110
O1864       O  0.94307721  0.88044656  0.59967742    -0.77500
O1865       O  0.89916794  0.89454797  0.56986560    -0.79290
O1866       O  0.55565466  0.98728399  0.61495552    -0.80220
O1867       O  0.96586032  0.92315625  0.65425636    -0.81550
O1868       O  0.51849858  0.89293928  0.56926400    -0.81840
Eu1869     Eu  0.98292724  0.92944521  0.59733648     2.39200
O1870       O  0.92983327  0.94928851  0.60033578    -0.89350
O1871       O  0.51817530  0.96314756  0.56093163    -0.92950
C1872       C  0.53108435  0.89128695  0.53983998     1.01740
C1873       C  0.94805805  0.93588292  0.67629099     1.01560
C1874       C  0.55703125  0.95811021  0.62838654     1.01500
C1875       C  0.91471453  0.87417154  0.58763241     0.99360
H1876       H  0.99370503  0.98243320  0.63837010     0.29110
O1877       O  0.98504885  0.98276547  0.61671392    -1.01730
H1878       H  0.96049406  0.90727725  0.53766627     0.29140
O1879       O  0.96130151  0.92945491  0.54502691    -1.04270
O1880       O  0.90415666  0.55552746  0.61517480    -0.81500
O1881       O  0.99447192  0.00104859  0.95851795    -0.81040
O1882       O  0.51470079  0.54855774  0.63063658    -0.79480
O1883       O  0.86081202  0.94849910  0.58947273    -0.82820
O1884       O  0.91311409  0.91970072  0.49646348    -0.80670
O1885       O  0.56845729  0.51581429  0.53929092    -0.79320
O1886       O  0.98511364  0.58711108  0.52677141    -0.80840
O1887       O  0.89265022  0.53210215  0.50122991    -0.82760
O1888       O  0.52948486  0.57122349  0.55428069    -0.79500
O1889       O  0.87037852  0.98117637  0.51557484    -0.82180
O1890       O  0.96267519  0.53776095  0.65425081    -0.77910
O1891       O  0.55071070  0.98760736  0.49654643    -0.77950
O1892       O  0.96546858  0.92926104  0.97351987    -0.77590
O1893       O  0.87427088  0.98295867  0.62925582    -0.81090
O1894       O  0.91196439  0.57492551  0.56132071    -0.80510
O1895       O  0.96407872  0.54474509  0.97242353    -0.78840
Eu1896     Eu  0.93155554  0.00228552  0.62008485     2.39770
Eu1897     Eu  0.99589634  0.96396268  0.50880215     2.39570
Eu1898     Eu  0.51955655  0.51680443  0.57970479     2.38400
Eu1899     Eu  0.90826389  0.95047579  0.54797177     2.39880
Eu1900     Eu  0.94497515  0.53806255  0.53005796     2.39790
O1901       O  0.94265708  0.98443861  0.51099097    -0.93260
O1902       O  0.96613267  0.53685560  0.58297549    -0.92150
C1903       C  0.90071944  0.57716015  0.59124707     1.01910
C1904       C  0.98156458  0.52892596  0.95190106     1.00630
C1905       C  0.99183329  0.55135780  0.65362093     1.00020
C1906       C  0.85416325  0.96255160  0.61671709     1.02040
C1907       C  0.93637922  0.91557617  0.97421747     1.00950
C1908       C  0.57285136  0.00458981  0.51014052     0.99800
C1909       C  0.51439004  0.59242345  0.53721631     0.99860
C1910       C  0.86944104  0.50940696  0.50024644     1.02470
H1911       H  0.51131057  0.53112216  0.51244288     0.29850
O1912       O  0.99743880  0.51713164  0.52781226    -1.05420
H1913       H  0.88836347  0.51211763  0.56833853     0.31900
O1914       O  0.91026008  0.00396429  0.56714576    -1.07980
C1915       C  0.92667168  0.92603508  0.73688602    -0.02260
C1916       C  0.94522513  0.91608649  0.70899689     0.07420
C1917       C  0.96152929  0.88562089  0.71281921    -0.02370
C1918       C  0.96114220  0.86872810  0.74375997    -0.02370
C1919       C  0.93717503  0.87497914  0.76849248     0.07560
C1920       C  0.91911518  0.90364247  0.76425523    -0.02570
Br1921     Br  0.88223877  0.91193667  0.79375971    -0.01120
Br1922     Br  0.91574506  0.97099987  0.74146249    -0.01190
Br1923     Br  0.99622377  0.83955370  0.75270028    -0.01150
Br1924     Br  0.98351763  0.86313074  0.67734185    -0.01130
C1925       C  0.95256334  0.85077928  0.91287407    -0.02260
C1926       C  0.92685237  0.85523679  0.89139253     0.07420
C1927       C  0.90182979  0.87665691  0.89972156    -0.02370
C1928       C  0.90503010  0.89699512  0.92634569    -0.02370
C1929       C  0.93068688  0.89271986  0.94775504     0.07560
C1930       C  0.95371091  0.86851094  0.94153572    -0.02570
Br1931     Br  0.98806773  0.86025092  0.97144192    -0.01120
Br1932     Br  0.98800931  0.82263693  0.90238201    -0.01190
Br1933     Br  0.87798922  0.93423071  0.92938273    -0.01150
Br1934     Br  0.86270354  0.87770308  0.87511136    -0.01130
C1935       C  0.99534619  0.55097926  0.71383302    -0.02260
C1936       C  0.99904921  0.56905065  0.68337306     0.07420
C1937       C  0.50239703  0.60362505  0.68302924    -0.02370
C1938       C  0.50603441  0.61935569  0.71274875    -0.02370
C1939       C  0.49769195  0.60174207  0.74330576     0.07560
C1940       C  0.49036811  0.56727432  0.74305167    -0.02570
Br1941     Br  0.46801570  0.54218059  0.78012893    -0.01120
Br1942     Br  0.99561006  0.00354192  0.71530099    -0.01190
Br1943     Br  0.52402485  0.66418387  0.71048016    -0.01150
Br1944     Br  0.99527066  0.62994389  0.64373198    -0.01130
C1945       C  0.51833033  0.55805422  0.90718642    -0.02260
C1946       C  0.98681009  0.54509910  0.91866648     0.07420
C1947       C  0.95904006  0.55327176  0.90132256    -0.02370
C1948       C  0.96238466  0.57590677  0.87401208    -0.02370
C1949       C  0.49365165  0.59032933  0.86364221     0.07560
C1950       C  0.52175826  0.58054516  0.87953261    -0.02570
Br1951     Br  0.56459772  0.59924431  0.86435256    -0.01120
Br1952     Br  0.55647406  0.04723547  0.93071800    -0.01190
Br1953     Br  0.92383964  0.58705216  0.85084316    -0.01150
Br1954     Br  0.91617897  0.53347269  0.91527944    -0.01130
C1955       C  0.93084828  0.70363748  0.80870816    -0.02260
C1956       C  0.96439920  0.69702108  0.81054869     0.07420
C1957       C  0.48750653  0.72275299  0.81578237    -0.02370
C1958       C  0.97712864  0.75483856  0.81962123    -0.02370
C1959       C  0.94345412  0.76146098  0.81849251     0.07560
C1960       C  0.92039436  0.73583883  0.81269751    -0.02570
Br1961     Br  0.87457218  0.74499198  0.81052918    -0.01120
Br1962     Br  0.89928791  0.66843565  0.80136611    -0.01190
Br1963     Br  0.50946345  0.78973213  0.82585285    -0.01150
Br1964     Br  0.53367060  0.71399904  0.81721933    -0.01130
C1965       C  0.65317604  0.54724949  0.97108114    -0.02260
C1966       C  0.66306234  0.52441315  0.94800623     0.07420
C1967       C  0.64391888  0.49499919  0.94601348    -0.02370
C1968       C  0.61396503  0.48951272  0.96463755    -0.02370
C1969       C  0.60469167  0.51125887  0.98970920     0.07560
C1970       C  0.62474466  0.54042856  0.49241705    -0.02570
Br1971     Br  0.61232598  0.57326193  0.52270994    -0.01120
Br1972     Br  0.67799519  0.58871084  0.47248417    -0.01190
Br1973     Br  0.58586429  0.95288631  0.95189894    -0.01150
Br1974     Br  0.65959682  0.46037591  0.91929871    -0.01130
C1975       C  0.83323169  0.54719205  0.96656164    -0.02260
C1976       C  0.83977065  0.51519149  0.98010514     0.07420
C1977       C  0.81704902  0.98837598  0.97416400    -0.02370
C1978       C  0.78977656  0.49360302  0.95505615    -0.02370
C1979       C  0.78446632  0.52495477  0.94104087     0.07560
C1980       C  0.80602170  0.55167467  0.94682390    -0.02570
Br1981     Br  0.79708122  0.59480967  0.92835455    -0.01120
Br1982     Br  0.85912202  0.58627191  0.47608097    -0.01190
Br1983     Br  0.75835462  0.95754761  0.94873162    -0.01150
Br1984     Br  0.82057413  0.94342238  0.99165383    -0.01130
C1985       C  0.61717102  0.96558619  0.63384251    -0.02260
C1986       C  0.58640049  0.95264519  0.64749162     0.07420
C1987       C  0.58376995  0.93986746  0.68061127    -0.02370
C1988       C  0.61197281  0.93912270  0.69935333    -0.02370
C1989       C  0.64207222  0.95376522  0.68596685     0.07560
C1990       C  0.64389633  0.96869066  0.65380848    -0.02570
Br1991     Br  0.68138726  0.99731361  0.63830556    -0.01120
Br1992     Br  0.62344096  0.97856099  0.58737312    -0.01190
Br1993     Br  0.60925852  0.91903438  0.74347470    -0.01150
Br1994     Br  0.54156135  0.92609913  0.70144847    -0.01130
C1995       C  0.79226145  0.94278137  0.68963790    -0.02260
C1996       C  0.76181074  0.94155519  0.67505604     0.07420
C1997       C  0.76255850  0.93963606  0.63996949    -0.02370
C1998       C  0.79290121  0.94441420  0.62102143    -0.02370
C1999       C  0.82208671  0.95411153  0.63616400     0.07560
C2000       C  0.82050494  0.95461737  0.67106907    -0.02570
Br2001     Br  0.85244598  0.97766913  0.69529898    -0.01120
Br2002     Br  0.79599144  0.92705275  0.73502889    -0.01190
Br2003     Br  0.79287314  0.94131432  0.57388704    -0.01150
Br2004     Br  0.72405813  0.92908428  0.61598943    -0.01130
C2005       C  0.71870902  0.53753410  0.81236742    -0.02260
C2006       C  0.72221428  0.51442782  0.83892931     0.07420
C2007       C  0.72227964  0.98059883  0.83286647    -0.02370
C2008       C  0.71681171  0.96986221  0.80122336    -0.02370
C2009       C  0.71284668  0.99285003  0.77478885     0.07560
C2010       C  0.71446761  0.52677833  0.78025010    -0.02570
Br2011     Br  0.71115901  0.55821422  0.74365381    -0.01120
Br2012     Br  0.72051353  0.58383628  0.82002537    -0.01190
Br2013     Br  0.71394720  0.92324835  0.79415010    -0.01150
Br2014     Br  0.73039597  0.94855306  0.86761601    -0.01130
C2015       C  0.89806958  0.63778490  0.58400685    -0.02260
C2016       C  0.88345537  0.60764393  0.59744001     0.07420
C2017       C  0.85124107  0.60682824  0.61208869    -0.02370
C2018       C  0.83365178  0.63597103  0.61258468    -0.02370
C2019       C  0.84722411  0.66554514  0.59629984     0.07560
C2020       C  0.87958596  0.66589843  0.58162011    -0.02570
Br2021     Br  0.89867863  0.70356207  0.55528785    -0.01120
Br2022     Br  0.94415155  0.64101023  0.56921157    -0.01190
Br2023     Br  0.79156087  0.63511916  0.63655555    -0.01150
Br2024     Br  0.83044294  0.56561570  0.62980610    -0.01130
C2025       C  0.86033142  0.80224451  0.62514278    -0.02260
C2026       C  0.85321201  0.78591419  0.59642346     0.07420
C2027       C  0.86942628  0.79662226  0.56603391    -0.02370
C2028       C  0.89171830  0.82396097  0.56410239    -0.02370
C2029       C  0.89818736  0.84111552  0.59245762     0.07560
C2030       C  0.88256096  0.83010796  0.62311294    -0.02570
Br2031     Br  0.88947659  0.85474996  0.66153998    -0.01120
Br2032     Br  0.83852479  0.78719496  0.66675829    -0.01190
Br2033     Br  0.91225393  0.83882782  0.52177536    -0.01150
Br2034     Br  0.86103443  0.77421848  0.52644353    -0.01130
C2035       C  0.55126109  0.63803949  0.55589654    -0.02260
C2036       C  0.53281583  0.62483550  0.53058235     0.07420
C2037       C  0.53478309  0.64185177  0.49910501    -0.02370
C2038       C  0.55619724  0.67033833  0.99309245    -0.02370
C2039       C  0.57284613  0.68366210  0.51928291     0.07560
C2040       C  0.56680942  0.66916934  0.55116270    -0.02570
Br2041     Br  0.57554199  0.69345521  0.58939598    -0.01120
Br2042     Br  0.56084785  0.61347145  0.59601204    -0.01190
Br2043     Br  0.56276479  0.69104924  0.94941813    -0.01150
Br2044     Br  0.01120156  0.62474091  0.96337184    -0.01130
C2045       C  0.58248528  0.86301333  0.52170927    -0.02260
C2046       C  0.54944220  0.86126743  0.53401079     0.07420
C2047       C  0.53447651  0.83028227  0.54454029    -0.02370
C2048       C  0.55240492  0.80172704  0.54326054    -0.02370
C2049       C  0.58435904  0.80281509  0.52739064     0.07560
C2050       C  0.59901582  0.83390967  0.51606574    -0.02570
Br2051     Br  0.64089795  0.83741423  0.49142782    -0.01120
Br2052     Br  0.60679892  0.90478137  0.51775767    -0.01190
Br2053     Br  0.53319847  0.76221914  0.56648744    -0.01150
Br2054     Br  0.98905392  0.82639745  0.56141985    -0.01130
C2055       C  0.68962386  0.71433894  0.57238397    -0.02260
C2056       C  0.68299117  0.73294849  0.54329985     0.07420
C2057       C  0.70973236  0.74873148  0.52420192    -0.02370
C2058       C  0.74226065  0.74667567  0.53446551    -0.02370
C2059       C  0.74850354  0.72941980  0.56444027     0.07560
C2060       C  0.72181164  0.71365915  0.58343420    -0.02570
Br2061     Br  0.72872854  0.69322427  0.62629761    -0.01120
Br2062     Br  0.65536278  0.68920140  0.59786395    -0.01190
Br2063     Br  0.77809244  0.76688664  0.50665801    -0.01150
Br2064     Br  0.70203798  0.77175648  0.48281996    -0.01130
loop_ 
_geom_bond_atom_site_label_1 
_geom_bond_atom_site_label_2 
_geom_bond_distance 
_geom_bond_site_symmetry_2 
_ccdc_geom_bond_type 
C1            C6   1.407       .  A
C1          C260   1.415       .  A
C1          C501   1.502       .  S
C2            C3   1.413       .  A
C2          C259   1.415       .  A
C2            H7   1.083       .  S
C3            C4   1.407       .  A
C3          C250   1.503       .  S
C4          C263   1.410       .  A
C4            H8   1.084       .  S
C5            C6   1.397       .  A
C5          C262   1.410       .  A
C5          C491   1.487       .  S
C6            H9   1.084       .  S
C10          C11   1.403       .  A
C10          C15   1.412       .  A
C10         C213   1.498       .  S
C11          C12   1.397       .  A
C11          H16   1.084       .  S
C12          C13   1.405       .  A
C12         C220   1.481       .  S
C13          C14   1.407       .  A
C13          H17   1.084       .  S
C14          C15   1.414       .  A
C14         C253   1.498       .  S
C15          H18   1.083       .  S
C19          C20   1.402       .  A
C19          C24   1.404       .  A
C19         C183   1.479       .  S
C20          C21   1.400       .  A
C20          H25   1.083       .  S
C21          C22   1.403       .  A
C21         C203   1.486       .  S
C22          C23   1.421       .  A
C22          H26   1.081       .  S
C23          C24   1.403       .  A
C23         C190   1.516       .  S
C24          H27   1.074       .  S
C28          C29   1.402       .  A
C28          C33   1.408       .  A
C28         C173   1.482       .  S
C29          C30   1.400       .  A
C29          H34   1.084       .  S
C30          C31   1.411       .  A
C30         C160   1.494       .  S
C31          C32   1.408       .  A
C31          H35   1.084       .  S
C32          C33   1.408       .  A
C32         C200   1.492       .  S
C33          H36   1.084       .  S
C37          C38   1.413       .  A
C37          C42   1.406   1_655  A
C37         C133   1.499       .  S
C38          C39   1.406       .  A
C38          H43   1.082       .  S
C39          C40   1.400       .  A
C39        C1182   1.481       .  S
C40          C41   1.400       .  A
C40          H44   1.084       .  S
C41          C42   1.396   1_655  A
C41         C143   1.476       .  S
C42          H45   1.083       .  S
C46          C47   1.405       .  A
C46          C51   1.406       .  A
C46         C120   1.486       .  S
C47          C48   1.402       .  A
C47          H52   1.083       .  S
C48          C49   1.403       .  A
C48         C153   1.485       .  S
C49          C50   1.411       .  A
C49          H53   1.084       .  S
C50          C51   1.404       .  A
C50         C113   1.499       .  S
C51          H54   1.083       .  S
O55          C66   1.299       .  A
O55       Eu1123   2.509   1_455  S
O56          C67   1.303       .  A
O56         Eu90   2.544       .  S
O57          C68   1.294       .  A
O57       Eu1095   2.484   1_455  S
O58          C69   1.298       .  A
O58         Eu63   2.508       .  S
O59          C69   1.283       .  A
O59         Eu93   2.406       .  S
O60          C68   1.286       .  A
O60        Eu608   2.422       .  S
O61          C67   1.270       .  A
O61         Eu63   2.379       .  S
O62          C66   1.283       .  A
O62       Eu1095   2.412   1_455  S
Eu63       O1089   2.484       .  S
Eu63       O1094   2.412       .  S
Eu63         O73   2.345       .  S
Eu63         O64   2.343       .  S
Eu63         O71   2.348       .  S
Eu63       O1097   2.349       .  S
O64         Eu93   2.346       .  S
O64         Eu90   2.341       .  S
O65       Eu1095   2.349   1_455  S
O65       Eu1123   2.349   1_455  S
O65        Eu608   2.351       .  S
C66         C240   1.485       .  S
C67         C110   1.515       .  S
C68         C180   1.480       .  S
C69         C223   1.476       .  S
H70          O71   0.966       .  S
O71         Eu90   2.354       .  S
O71       Eu1640   2.353       .  S
H72          O73   0.966       .  S
O73         Eu91   2.347       .  S
O73         Eu93   2.360       .  S
O74          C97   1.295       .  A
O74        Eu606   2.488       .  S
O75         C614   1.294       .  A
O75        Eu349   2.482       .  S
O76        C1131   1.298   1_455  A
O76         Eu92   2.503       .  S
O77         C100   1.296       .  A
O77         Eu93   2.494       .  S
O78         C359   1.298       .  A
O78         Eu93   2.501   1_556  S
O79         C618   1.300       .  A
O79         Eu92   2.518       .  S
O80        C1135   1.300       .  A
O80         Eu94   2.515       .  S
O81         C104   1.295       .  A
O81         Eu94   2.495       .  S
O82         C103   1.279       .  A
O82         Eu92   2.403       .  S
O83         C620   1.282       .  A
O83         Eu93   2.429       .  S
O84          C99   1.285       .  A
O84        Eu606   2.419       .  S
O85         C102   1.278   1_556  A
O85       Eu1123   2.407   1_456  S
O86         C101   1.284       .  A
O86        Eu349   2.415       .  S
O87         C100   1.283       .  A
O87         Eu90   2.431       .  S
O88          C97   1.287       .  A
O88         Eu94   2.426       .  S
O89          C98   1.287       .  A
O89        Eu352   2.428       .  S
Eu90        O590   2.488       .  S
Eu90        O600   2.419       .  S
Eu90        O108   2.362       .  S
Eu90        O612   2.369       .  S
Eu91       O1087   2.509       .  S
Eu91        O333   2.482   1_554  S
Eu91       O1117   2.407   1_554  S
Eu91        O344   2.415   1_554  S
Eu91         O95   2.358       .  S
Eu91       O1097   2.349       .  S
Eu91        O622   2.336       .  S
Eu92        O576   2.422   1_545  S
Eu92        O581   2.351   1_545  S
Eu92       O1619   2.353   1_445  S
Eu92       O1138   2.338   1_455  S
Eu92       O1128   2.359   1_455  S
Eu93         O95   2.349       .  S
Eu93        O108   2.351       .  S
Eu94        O347   2.428   1_554  S
Eu94        O106   2.336       .  S
Eu94         O96   2.359       .  S
Eu94        O611   2.355   1_545  S
Eu94        O624   2.361       .  S
O95        Eu610   2.355       .  S
O96        Eu606   2.369       .  S
O96       Eu1124   2.359       .  S
C97         C210   1.481       .  S
C98         C140   1.473       .  S
C98         O591   1.294       .  A
C99         C130   1.476       .  S
C99        O1108   1.298       .  A
C100        C193   1.507       .  S
C101        C123   1.480       .  S
C101        O336   1.298       .  A
C102        C937   1.509   1_554  S
C102        O595   1.300       .  A
C103        C230   1.492       .  S
C103       O1112   1.300   1_455  A
C104        C428   1.516   1_554  S
C104        O599   1.282   1_545  A
H105       O1138   0.964   1_455  S
O106       Eu607   2.336   1_545  S
O106      Eu1124   2.338       .  S
O106       H1137   0.964       .  S
H107        O624   0.966       .  S
O108       Eu610   2.361       .  S
O108        H623   0.966       .  S
C109        C110   1.417       .  A
C109        C114   1.413       .  A
C109       Br116   1.920       .  S
C110        C111   1.439       .  A
C111        C112   1.401       .  A
C111       Br118   1.950       .  S
C112        C113   1.406       .  A
C112       Br117   1.937       .  S
C113        C114   1.416       .  A
C114       Br115   1.926       .  S
C119        C120   1.411       .  A
C119        C124   1.405       .  A
C119       Br126   1.929       .  S
C120        C121   1.411       .  A
C121        C122   1.405       .  A
C121       Br128   1.927       .  S
C122        C123   1.406       .  A
C122       Br127   1.920       .  S
C123        C124   1.415       .  A
C124       Br125   1.932       .  S
C129        C130   1.405       .  A
C129       C1166   1.401       .  A
C129       Br652   1.930       .  S
C130       C1163   1.407       .  A
C131        C132   1.409       .  A
C131       C1162   1.407   1_455  A
C131      Br1170   1.920   1_455  S
C132        C133   1.419   1_455  A
C132       Br137   1.931       .  S
C133        C134   1.422       .  A
C134       C1161   1.401       .  A
C134       Br135   1.937       .  S
Br136       C645   1.930       .  S
Br138      C1163   1.920       .  S
C139        C144   1.409       .  A
C139       C1172   1.412   1_455  A
C139       Br662   1.924       .  S
C140        C141   1.408       .  A
C140       C1171   1.412       .  A
C141        C142   1.402       .  A
C141       Br148   1.933       .  S
C142       C1175   1.412       .  A
C142       Br147   1.933       .  S
C143        C144   1.407   1_655  A
C143       C1174   1.412       .  A
C144       Br145   1.929       .  S
Br146       C655   1.924       .  S
C149        C150   1.410       .  A
C149        C154   1.412       .  A
C149       Br156   1.927       .  S
C150       C1183   1.408       .  A
C150       C1071   1.481       .  S
C151       C1182   1.408       .  A
C151       C1184   1.406       .  A
C151       Br158   1.934   1_655  S
C152        C153   1.413       .  A
C152       C1183   1.406       .  A
C152      Br1189   1.928       .  S
C153        C154   1.409       .  A
C154       Br155   1.926       .  S
Br157      C1184   1.928   1_455  S
C159        C160   1.412       .  A
C159        C422   1.418       .  A
C159       Br424   1.932       .  S
C160        C161   1.407   1_545  A
C161        C162   1.404       .  A
C161       Br168   1.936       .  S
C162        C163   1.433   1_565  A
C162       Br683   1.946       .  S
C163        C422   1.423       .  A
C163        C876   1.509       .  S
C164        C417   1.418       .  A
C164        C421   1.423       .  A
C164       Br165   1.932   1_556  S
Br166       C417   1.932       .  S
Br167       C678   1.946       .  S
C169        C170   1.430       .  A
C169        C174   1.416       .  A
C169       Br434   1.936       .  S
C170        C687   1.437   1_545  A
C170        C362   1.516       .  S
C171        C686   1.437       .  A
C171        C688   1.407       .  A
C171       Br178   1.943       .  S
C172        C173   1.401   1_565  A
C172        C687   1.407       .  A
C172       Br693   1.939       .  S
C173        C174   1.404       .  A
C174       Br175   1.932       .  S
Br176       C427   1.936       .  S
Br177       C688   1.939       .  S
C179        C180   1.411       .  A
C179        C184   1.397       .  A
C179       Br186   1.936       .  S
C180        C181   1.415       .  A
C181        C182   1.413       .  A
C181       Br188   1.922       .  S
C182        C183   1.408       .  A
C182       Br187   1.928       .  S
C183        C184   1.410       .  A
C184       Br185   1.935       .  S
C189        C190   1.403       .  A
C189        C194   1.395       .  A
C189       Br196   1.938       .  S
C190        C191   1.432       .  A
C191        C192   1.422       .  A
C191       Br198   1.934       .  S
C192        C193   1.417       .  A
C192       Br197   1.928       .  S
C193        C194   1.419       .  A
C194       Br195   1.914       .  S
C199        C200   1.412       .  A
C199        C204   1.416       .  A
C199       Br206   1.926       .  S
C200        C717   1.412   1_545  A
C201        C202   1.406       .  A
C201        C716   1.412       .  A
C201       Br208   1.925       .  S
C202        C203   1.409       .  A
C202       Br207   1.934       .  S
C203        C720   1.410       .  A
C204        C719   1.410   1_545  A
C204       Br205   1.926       .  S
C209        C210   1.409       .  A
C209        C214   1.401       .  A
C209       Br216   1.937       .  S
C210        C211   1.410       .  A
C211        C212   1.415       .  A
C211       Br218   1.931       .  S
C212        C213   1.418       .  A
C212       Br217   1.925       .  S
C213        C214   1.417       .  A
C214       Br215   1.932       .  S
C219        C220   1.411       .  A
C219        C224   1.415       .  A
C219       Br226   1.926       .  S
C220        C221   1.409       .  A
C221        C222   1.400       .  A
C221       Br228   1.930       .  S
C222        C223   1.410       .  A
C222       Br227   1.929       .  S
C223        C224   1.411       .  A
C224       Br225   1.927       .  S
C229        C230   1.420       .  A
C229        C234   1.390       .  A
C229       Br236   1.936       .  S
C230        C231   1.420   1_554  A
C231        C490   1.421       .  A
C231      Br1528   1.927       .  S
C232        C489   1.421       .  A
C232        C491   1.412       .  A
C232       Br237   1.926       .  S
C233        C234   1.401       .  A
C233        C490   1.412   1_554  A
C233        C263   1.487       .  S
C234       Br235   1.926       .  S
Br238      C1521   1.927       .  S
C239        C240   1.408       .  A
C239        C244   1.413       .  A
C239       Br246   1.923       .  S
C240        C241   1.411       .  A
C241        C242   1.403       .  A
C241      Br1280   1.936   1_455  S
C242        C243   1.420       .  A
C242       Br247   1.933       .  S
C243        C244   1.418       .  A
C243        C259   1.502       .  S
C244       Br245   1.928   1_554  S
Br248      C1273   1.936       .  S
C249        C250   1.416       .  A
C249        C254   1.409       .  A
C249       Br256   1.916       .  S
C250        C251   1.413       .  A
C251        C252   1.415       .  A
C251       Br258   1.931   1_554  S
C252        C253   1.416       .  A
C252       Br257   1.924       .  S
C253        C254   1.409       .  A
C254       Br255   1.932       .  S
C259        C264   1.407       .  A
C260        C261   1.413       .  A
C260        H265   1.083       .  S
C261        C262   1.407       .  A
C261        C508   1.503       .  S
C262        H266   1.084       .  S
C263        C264   1.397       .  A
C264        H267   1.084       .  S
C268        C269   1.403       .  A
C268        C273   1.412       .  A
C268        C471   1.498       .  S
C269        C270   1.397       .  A
C269        H274   1.084       .  S
C270        C271   1.405       .  A
C270        C478   1.481       .  S
C271        C272   1.407       .  A
C271        H275   1.084       .  S
C272        C273   1.414       .  A
C272        C511   1.498       .  S
C273        H276   1.083       .  S
C277        C278   1.402       .  A
C277        C282   1.404       .  A
C277        C441   1.479       .  S
C278        C279   1.400       .  A
C278        H283   1.083       .  S
C279        C280   1.403       .  A
C279        C461   1.486       .  S
C280        C281   1.421       .  A
C280        H284   1.081       .  S
C281        C282   1.403       .  A
C281        C448   1.516       .  S
C282        H285   1.074       .  S
C286        C287   1.402       .  A
C286        C291   1.408       .  A
C286        C431   1.482       .  S
C287        C288   1.400       .  A
C287        H292   1.084       .  S
C288        C289   1.411       .  A
C288        C418   1.494       .  S
C289        C290   1.408       .  A
C289        H293   1.084       .  S
C290        C291   1.408       .  A
C290        C458   1.492       .  S
C291        H294   1.084       .  S
C295        C296   1.413       .  A
C295        C300   1.406   1_655  A
C295        C391   1.499       .  S
C296        C297   1.406       .  A
C296        H301   1.082       .  S
C297        C298   1.400       .  A
C297       C1440   1.481       .  S
C298        C299   1.400       .  A
C298        H302   1.084       .  S
C299        C300   1.396   1_655  A
C299        C401   1.476       .  S
C300        H303   1.083       .  S
C304        C305   1.405       .  A
C304        C309   1.406       .  A
C304        C378   1.486       .  S
C305        C306   1.402       .  A
C305        H310   1.083       .  S
C306        C307   1.403       .  A
C306        C411   1.485       .  S
C307        C308   1.411       .  A
C307        H311   1.084       .  S
C308        C309   1.404       .  A
C308        C371   1.499       .  S
C309        H312   1.083       .  S
O313        C324   1.299       .  A
O313      Eu1381   2.509   1_455  S
O314        C325   1.303       .  A
O314       Eu348   2.544       .  S
O315        C326   1.294       .  A
O315      Eu1353   2.484   1_455  S
O316        C327   1.298       .  A
O316       Eu321   2.508       .  S
O317        C327   1.283       .  A
O317       Eu351   2.406       .  S
O318        C326   1.286       .  A
O318       Eu866   2.422       .  S
O319        C325   1.270       .  A
O319       Eu321   2.379       .  S
O320        C324   1.283       .  A
O320      Eu1353   2.412   1_455  S
Eu321      O1347   2.484       .  S
Eu321      O1352   2.412       .  S
Eu321       O331   2.345       .  S
Eu321      O1355   2.349       .  S
Eu321       O322   2.343       .  S
Eu321       O329   2.348       .  S
O322       Eu351   2.346       .  S
O322       Eu348   2.341       .  S
O323      Eu1353   2.349   1_455  S
O323      Eu1381   2.349   1_455  S
O323       Eu866   2.351       .  S
C324        C498   1.485       .  S
C325        C368   1.515       .  S
C326        C438   1.480       .  S
C327        C481   1.476       .  S
H328        O329   0.966       .  S
O329      Eu1898   2.353       .  S
O329       Eu348   2.354       .  S
H330        O331   0.966       .  S
O331       Eu349   2.347       .  S
O331       Eu351   2.360       .  S
O332        C355   1.295       .  A
O332       Eu864   2.488       .  S
O333        C872   1.294       .  A
O334       C1389   1.298   1_455  A
O334       Eu350   2.503       .  S
O335        C358   1.295       .  A
O335       Eu351   2.494       .  S
O336       Eu351   2.501       .  S
O337        C876   1.300       .  A
O337       Eu350   2.518       .  S
O338       C1393   1.300       .  A
O338       Eu352   2.515       .  S
O339        C362   1.295       .  A
O339       Eu352   2.495       .  S
O340        C361   1.279       .  A
O340       Eu350   2.403       .  S
O341        C878   1.282       .  A
O341       Eu351   2.429       .  S
O342        C357   1.285       .  A
O342       Eu864   2.419       .  S
O343        C360   1.278       .  A
O343      Eu1381   2.407   1_455  S
O344        C359   1.284       .  A
O345        C358   1.283       .  A
O345       Eu348   2.431       .  S
O346        C355   1.287       .  A
O346       Eu352   2.426       .  S
O347        C356   1.287       .  A
Eu348       O848   2.488       .  S
Eu348       O858   2.419       .  S
Eu348       O366   2.362       .  S
Eu348       O870   2.369       .  S
Eu349      O1345   2.509       .  S
Eu349      O1375   2.407       .  S
Eu349      O1355   2.349       .  S
Eu349       O353   2.358       .  S
Eu349       O880   2.336       .  S
Eu350       O834   2.422   1_545  S
Eu350       O839   2.351   1_545  S
Eu350      O1877   2.353   1_445  S
Eu350      O1396   2.338   1_455  S
Eu350      O1386   2.359   1_455  S
Eu351       O353   2.349       .  S
Eu351       O366   2.351       .  S
Eu352       O869   2.355   1_545  S
Eu352       O364   2.336       .  S
Eu352       O882   2.361       .  S
Eu352       O354   2.359       .  S
O353       Eu868   2.355       .  S
O354       Eu864   2.369       .  S
O354      Eu1382   2.359       .  S
C355        C468   1.481       .  S
C356        C398   1.473       .  S
C356        O849   1.294       .  A
C357        C388   1.476       .  S
C357       O1366   1.298       .  A
C358        C451   1.507       .  S
C359        C381   1.480       .  S
C360        C679   1.509       .  S
C360        O853   1.300       .  A
C361        C488   1.492       .  S
C361       O1370   1.300   1_455  A
C362        O857   1.282   1_545  A
H363       O1396   0.964   1_455  S
O364       Eu865   2.336   1_545  S
O364      Eu1382   2.338       .  S
O364       H1395   0.964       .  S
H365        O882   0.966       .  S
O366       Eu868   2.361       .  S
O366        H881   0.966       .  S
C367        C368   1.417       .  A
C367        C372   1.413       .  A
C367       Br374   1.920       .  S
C368        C369   1.439       .  A
C369        C370   1.401       .  A
C369       Br376   1.950       .  S
C370        C371   1.406       .  A
C370       Br375   1.937       .  S
C371        C372   1.416       .  A
C372       Br373   1.926       .  S
C377        C378   1.411       .  A
C377        C382   1.405       .  A
C377       Br384   1.929       .  S
C378        C379   1.411       .  A
C379        C380   1.405       .  A
C379       Br386   1.927       .  S
C380        C381   1.406       .  A
C380       Br385   1.920       .  S
C381        C382   1.415       .  A
C382       Br383   1.932       .  S
C387        C388   1.405       .  A
C387       C1424   1.401       .  A
C387       Br910   1.930       .  S
C388       C1421   1.407       .  A
C389       C1420   1.407   1_455  A
C389        C390   1.409       .  A
C389      Br1428   1.920   1_455  S
C390        C391   1.419   1_455  A
C390       Br395   1.931       .  S
C391        C392   1.422       .  A
C392       C1419   1.401       .  A
C392       Br393   1.937       .  S
Br394       C903   1.930       .  S
Br396      C1421   1.920       .  S
C397       C1430   1.412   1_455  A
C397        C402   1.409       .  A
C397       Br920   1.924       .  S
C398       C1429   1.412       .  A
C398        C399   1.408       .  A
C399        C400   1.402       .  A
C399       Br406   1.933       .  S
C400       C1433   1.412       .  A
C400       Br405   1.933       .  S
C401       C1432   1.412       .  A
C401        C402   1.407   1_655  A
C402       Br403   1.929       .  S
Br404       C913   1.924       .  S
C407        C408   1.410       .  A
C407        C412   1.412       .  A
C407       Br414   1.927       .  S
C408       C1441   1.408       .  A
C408       C1329   1.481       .  S
C409       C1440   1.408       .  A
C409       C1442   1.406       .  A
C409       Br416   1.934   1_655  S
C410       C1441   1.406       .  A
C410        C411   1.413       .  A
C410      Br1447   1.928       .  S
C411        C412   1.409       .  A
C412       Br413   1.926       .  S
Br415      C1442   1.928   1_455  S
C417        C418   1.412       .  A
C418        C419   1.407   1_545  A
C419        C420   1.404       .  A
C419       Br426   1.936       .  S
C420        C421   1.433   1_565  A
C420       Br941   1.946       .  S
C421        C618   1.509   1_556  S
C422       Br423   1.932       .  S
Br425       C936   1.946       .  S
C427        C428   1.430       .  A
C427        C432   1.416       .  A
C428        C945   1.437   1_545  A
C429        C944   1.437       .  A
C429        C946   1.407       .  A
C429       Br436   1.943       .  S
C430        C945   1.407       .  A
C430        C431   1.401   1_565  A
C430       Br951   1.939       .  S
C431        C432   1.404       .  A
C432       Br433   1.932       .  S
Br435       C946   1.939       .  S
C437        C438   1.411       .  A
C437        C442   1.397       .  A
C437       Br444   1.936       .  S
C438        C439   1.415       .  A
C439        C440   1.413       .  A
C439       Br446   1.922       .  S
C440        C441   1.408       .  A
C440       Br445   1.928       .  S
C441        C442   1.410       .  A
C442       Br443   1.935       .  S
C447        C448   1.403       .  A
C447        C452   1.395       .  A
C447       Br454   1.938       .  S
C448        C449   1.432       .  A
C449        C450   1.422       .  A
C449       Br456   1.934       .  S
C450        C451   1.417       .  A
C450       Br455   1.928       .  S
C451        C452   1.419       .  A
C452       Br453   1.915       .  S
C457        C458   1.412       .  A
C457        C462   1.416       .  A
C457       Br464   1.926       .  S
C458        C975   1.412   1_545  A
C459        C974   1.412       .  A
C459        C460   1.406       .  A
C459       Br466   1.925       .  S
C460        C461   1.409       .  A
C460       Br465   1.934       .  S
C461        C978   1.410       .  A
C462        C977   1.410   1_545  A
C462       Br463   1.926       .  S
C467        C468   1.409       .  A
C467        C472   1.401       .  A
C467       Br474   1.937       .  S
C468        C469   1.410       .  A
C469        C470   1.415       .  A
C469       Br476   1.931       .  S
C470        C471   1.418       .  A
C470       Br475   1.925       .  S
C471        C472   1.417       .  A
C472       Br473   1.932       .  S
C477        C478   1.411       .  A
C477        C482   1.415       .  A
C477       Br484   1.926       .  S
C478        C479   1.409       .  A
C479        C480   1.400       .  A
C479       Br486   1.930       .  S
C480        C481   1.410       .  A
C480       Br485   1.929       .  S
C481        C482   1.411       .  A
C482       Br483   1.927       .  S
C487        C488   1.420       .  A
C487        C492   1.390       .  A
C487       Br494   1.936       .  S
C488        C489   1.420       .  A
C489      Br1270   1.927       .  S
C490       Br495   1.926       .  S
C491        C492   1.401       .  A
C492       Br493   1.926       .  S
Br496      C1263   1.927       .  S
C497        C498   1.408       .  A
C497        C502   1.413       .  A
C497       Br504   1.923       .  S
C498        C499   1.411       .  A
C499        C500   1.403       .  A
C499      Br1538   1.936   1_455  S
C500        C501   1.420       .  A
C500       Br505   1.933       .  S
C501        C502   1.418       .  A
C502       Br503   1.928       .  S
Br506      C1531   1.936       .  S
C507        C508   1.416       .  A
C507        C512   1.409       .  A
C507       Br514   1.916       .  S
C508        C509   1.413       .  A
C509        C510   1.415       .  A
C509       Br516   1.931       .  S
C510        C511   1.416       .  A
C510       Br515   1.924       .  S
C511        C512   1.409       .  A
C512       Br513   1.932       .  S
C517        C776   1.415       .  A
C517        C522   1.407       .  A
C517       C1017   1.502       .  S
C518        C775   1.415       .  A
C518        C519   1.413       .  A
C518        H523   1.083       .  S
C519        C520   1.407       .  A
C519        C766   1.503       .  S
C520        C779   1.410       .  A
C520        H524   1.084       .  S
C521        C778   1.410       .  A
C521        C522   1.397       .  A
C521       C1007   1.487       .  S
C522        H525   1.084       .  S
C526        C527   1.403       .  A
C526        C531   1.412       .  A
C526        C729   1.498       .  S
C527        C528   1.397       .  A
C527        H532   1.084       .  S
C528        C529   1.405       .  A
C528        C736   1.481       .  S
C529        C530   1.407       .  A
C529        H533   1.084       .  S
C530        C531   1.414       .  A
C530        C769   1.498       .  S
C531        H534   1.083       .  S
C535        C536   1.402       .  A
C535        C540   1.404       .  A
C535        C699   1.479       .  S
C536        C537   1.400       .  A
C536        H541   1.083       .  S
C537        C538   1.403       .  A
C537        C719   1.486       .  S
C538        C539   1.421       .  A
C538        H542   1.081       .  S
C539        C540   1.403       .  A
C539        C706   1.516       .  S
C540        H543   1.074       .  S
C544        C545   1.402       .  A
C544        C549   1.408       .  A
C544        C689   1.482       .  S
C545        C546   1.400       .  A
C545        H550   1.084       .  S
C546        C547   1.411       .  A
C546        C676   1.494       .  S
C547        C548   1.408       .  A
C547        H551   1.084       .  S
C548        C549   1.408       .  A
C548        C716   1.492       .  S
C549        H552   1.084       .  S
C553        C554   1.413       .  A
C553        C558   1.406   1_655  A
C553        C649   1.499       .  S
C554        C555   1.406       .  A
C554        H559   1.082       .  S
C555        C556   1.400       .  A
C555       C1698   1.481       .  S
C556        C557   1.400       .  A
C556        H560   1.084       .  S
C557        C558   1.396   1_655  A
C557        C659   1.476       .  S
C558        H561   1.083       .  S
C562        C563   1.405       .  A
C562        C567   1.406       .  A
C562        C636   1.486       .  S
C563        C564   1.402       .  A
C563        H568   1.083       .  S
C564        C565   1.403       .  A
C564        C669   1.485       .  S
C565        C566   1.411       .  A
C565        H569   1.084       .  S
C566        C567   1.404       .  A
C566        C629   1.499       .  S
C567        H570   1.083       .  S
O571        C582   1.299       .  A
O571      Eu1639   2.509   1_455  S
O572        C583   1.303       .  A
O572       Eu606   2.544   1_565  S
O573        C584   1.294       .  A
O573      Eu1611   2.484   1_455  S
O574        C585   1.298       .  A
O574       Eu579   2.508       .  S
O575        C585   1.283       .  A
O575       Eu609   2.406       .  S
O576        C584   1.286       .  A
O577        C583   1.270       .  A
O577       Eu579   2.379       .  S
O578        C582   1.283       .  A
O578      Eu1611   2.412   1_455  S
Eu579      O1605   2.484       .  S
Eu579      O1610   2.412       .  S
Eu579       O589   2.345       .  S
Eu579      O1613   2.349       .  S
Eu579       O580   2.343       .  S
Eu579       O587   2.348       .  S
O580       Eu609   2.346       .  S
O580       Eu606   2.341   1_565  S
O581      Eu1611   2.349   1_455  S
O581      Eu1639   2.349   1_455  S
C582        C756   1.485       .  S
C583        C626   1.515       .  S
C584        C696   1.480       .  S
C585        C739   1.476       .  S
H586        O587   0.966       .  S
O587      Eu1124   2.353   1_565  S
O587       Eu606   2.354   1_565  S
H588        O589   0.966       .  S
O589       Eu607   2.347       .  S
O589       Eu609   2.360       .  S
O590        C613   1.295       .  A
O591       Eu865   2.482   1_545  S
O592       C1647   1.298   1_455  A
O592       Eu608   2.503       .  S
O593        C616   1.296       .  A
O593       Eu609   2.494       .  S
O594        C875   1.298       .  A
O594       Eu609   2.501   1_556  S
O595       Eu608   2.518       .  S
O596       C1651   1.300       .  A
O596       Eu610   2.515       .  S
O597        C620   1.295       .  A
O597       Eu610   2.495       .  S
O598        C619   1.279       .  A
O598       Eu608   2.403       .  S
O599       Eu609   2.429       .  S
O600        C615   1.285       .  A
O601        C618   1.278   1_566  A
O601      Eu1639   2.407   1_456  S
O602        C617   1.284       .  A
O602       Eu865   2.415       .  S
O603        C616   1.283       .  A
O603       Eu606   2.431   1_565  S
O604        C613   1.287       .  A
O604       Eu610   2.426       .  S
O605        C614   1.287       .  A
O605       Eu868   2.428       .  S
Eu606       O624   2.362       .  S
Eu607      O1603   2.509       .  S
Eu607       O849   2.482   1_564  S
Eu607      O1633   2.407   1_554  S
Eu607       O860   2.415   1_554  S
Eu607      O1613   2.349       .  S
Eu607       O611   2.358       .  S
Eu608      O1103   2.353   1_455  S
Eu608      O1654   2.338   1_455  S
Eu608      O1644   2.359   1_455  S
Eu609       O611   2.349       .  S
Eu609       O624   2.351   1_565  S
Eu610       O863   2.428   1_554  S
Eu610       O622   2.336       .  S
Eu610       O612   2.359       .  S
O612      Eu1640   2.359       .  S
C613        C726   1.481       .  S
C614        C656   1.473       .  S
C615        C646   1.476       .  S
C615       O1624   1.298       .  A
C616        C709   1.507       .  S
C617        C639   1.480       .  S
C617        O852   1.298       .  A
C619        C746   1.492       .  S
C619       O1628   1.300   1_455  A
C620        C944   1.516   1_554  S
H621       O1654   0.964   1_455  S
O622      Eu1640   2.338       .  S
O622       H1653   0.964       .  S
C625        C626   1.417       .  A
C625        C630   1.413       .  A
C625       Br632   1.920       .  S
C626        C627   1.439       .  A
C627        C628   1.401       .  A
C627       Br634   1.950       .  S
C628        C629   1.406       .  A
C628       Br633   1.937       .  S
C629        C630   1.416       .  A
C630       Br631   1.926       .  S
C635        C636   1.411       .  A
C635        C640   1.405       .  A
C635       Br642   1.929       .  S
C636        C637   1.411       .  A
C637        C638   1.405       .  A
C637       Br644   1.927       .  S
C638        C639   1.406       .  A
C638       Br643   1.920       .  S
C639        C640   1.415       .  A
C640       Br641   1.932       .  S
C645        C646   1.405       .  A
C645       C1682   1.401       .  A
C646       C1679   1.407       .  A
C647       C1678   1.407   1_455  A
C647        C648   1.409       .  A
C647      Br1686   1.920   1_455  S
C648        C649   1.419   1_455  A
C648       Br653   1.931       .  S
C649        C650   1.422       .  A
C650       C1677   1.401       .  A
C650       Br651   1.937       .  S
Br654      C1679   1.920       .  S
C655       C1688   1.412   1_455  A
C655        C660   1.409       .  A
C656       C1687   1.412       .  A
C656        C657   1.408       .  A
C657        C658   1.402       .  A
C657       Br664   1.933       .  S
C658       C1691   1.412       .  A
C658       Br663   1.933       .  S
C659       C1690   1.412       .  A
C659        C660   1.407   1_655  A
C660       Br661   1.929       .  S
C665        C666   1.410       .  A
C665        C670   1.412       .  A
C665       Br672   1.927       .  S
C666       C1699   1.408       .  A
C666       C1587   1.481       .  S
C667       C1698   1.408       .  A
C667       C1700   1.406       .  A
C667       Br674   1.934   1_655  S
C668       C1699   1.406       .  A
C668        C669   1.413       .  A
C668      Br1705   1.928       .  S
C669        C670   1.409       .  A
C670       Br671   1.926       .  S
Br673      C1700   1.928   1_455  S
C675        C676   1.412       .  A
C675        C938   1.418       .  A
C675       Br940   1.932       .  S
C676        C677   1.407       .  A
C677        C678   1.404       .  A
C677       Br684   1.936       .  S
C678        C679   1.433       .  A
C679        C938   1.423       .  A
C680        C933   1.418       .  A
C680        C937   1.423       .  A
C680       Br681   1.932   1_556  S
Br682       C933   1.932       .  S
C685        C686   1.430       .  A
C685        C690   1.416       .  A
C685       Br950   1.936       .  S
C686        C878   1.516       .  S
C687       Br694   1.943       .  S
C688        C689   1.401       .  A
C689        C690   1.404       .  A
C690       Br691   1.932       .  S
Br692       C943   1.936       .  S
C695        C696   1.411       .  A
C695        C700   1.397       .  A
C695       Br702   1.936       .  S
C696        C697   1.415       .  A
C697        C698   1.413       .  A
C697       Br704   1.922       .  S
C698        C699   1.408       .  A
C698       Br703   1.928       .  S
C699        C700   1.410       .  A
C700       Br701   1.935       .  S
C705        C706   1.403       .  A
C705        C710   1.395       .  A
C705       Br712   1.938       .  S
C706        C707   1.432       .  A
C707        C708   1.422       .  A
C707       Br714   1.934       .  S
C708        C709   1.417       .  A
C708       Br713   1.928       .  S
C709        C710   1.419       .  A
C710       Br711   1.914       .  S
C715        C716   1.412       .  A
C715        C720   1.416       .  A
C715       Br722   1.926       .  S
C717        C718   1.406       .  A
C717       Br724   1.925       .  S
C718        C719   1.409       .  A
C718       Br723   1.934       .  S
C720       Br721   1.926       .  S
C725        C726   1.409       .  A
C725        C730   1.401       .  A
C725       Br732   1.937       .  S
C726        C727   1.410       .  A
C727        C728   1.415       .  A
C727       Br734   1.931       .  S
C728        C729   1.418       .  A
C728       Br733   1.925       .  S
C729        C730   1.417       .  A
C730       Br731   1.932       .  S
C735        C736   1.411       .  A
C735        C740   1.415       .  A
C735       Br742   1.926       .  S
C736        C737   1.409       .  A
C737        C738   1.400       .  A
C737       Br744   1.930       .  S
C738        C739   1.410       .  A
C738       Br743   1.929       .  S
C739        C740   1.411       .  A
C740       Br741   1.927       .  S
C745        C746   1.420       .  A
C745        C750   1.390       .  A
C745       Br752   1.936       .  S
C746        C747   1.420   1_554  A
C747       C1006   1.421       .  A
C747      Br2044   1.927       .  S
C748       C1005   1.421       .  A
C748       C1007   1.412       .  A
C748       Br753   1.926       .  S
C749       C1006   1.412   1_554  A
C749        C750   1.401       .  A
C749        C779   1.487       .  S
C750       Br751   1.926       .  S
Br754      C2037   1.927       .  S
C755        C756   1.408       .  A
C755        C760   1.413       .  A
C755       Br762   1.923       .  S
C756        C757   1.411       .  A
C757        C758   1.403       .  A
C757      Br1796   1.936   1_455  S
C758        C759   1.420       .  A
C758       Br763   1.933       .  S
C759        C760   1.418       .  A
C759        C775   1.502       .  S
C760       Br761   1.928   1_554  S
Br764      C1789   1.936       .  S
C765        C766   1.416       .  A
C765        C770   1.409       .  A
C765       Br772   1.916       .  S
C766        C767   1.413       .  A
C767        C768   1.415       .  A
C767       Br774   1.931   1_554  S
C768        C769   1.416       .  A
C768       Br773   1.924       .  S
C769        C770   1.409       .  A
C770       Br771   1.932       .  S
C775        C780   1.407       .  A
C776        C777   1.413       .  A
C776        H781   1.083       .  S
C777        C778   1.407       .  A
C777       C1024   1.503       .  S
C778        H782   1.084       .  S
C779        C780   1.397       .  A
C780        H783   1.084       .  S
C784        C785   1.403       .  A
C784        C789   1.412       .  A
C784        C987   1.498       .  S
C785        C786   1.397       .  A
C785        H790   1.084       .  S
C786        C787   1.405       .  A
C786        C994   1.481       .  S
C787        C788   1.407       .  A
C787        H791   1.084       .  S
C788        C789   1.414       .  A
C788       C1027   1.498       .  S
C789        H792   1.083       .  S
C793        C794   1.402       .  A
C793        C798   1.404       .  A
C793        C957   1.479       .  S
C794        C795   1.400       .  A
C794        H799   1.083       .  S
C795        C796   1.403       .  A
C795        C977   1.486       .  S
C796        C797   1.421       .  A
C796        H800   1.081       .  S
C797        C798   1.403       .  A
C797        C964   1.516       .  S
C798        H801   1.074       .  S
C802        C803   1.402       .  A
C802        C807   1.408       .  A
C802        C947   1.482       .  S
C803        C804   1.400       .  A
C803        H808   1.084       .  S
C804        C805   1.411       .  A
C804        C934   1.494       .  S
C805        C806   1.408       .  A
C805        H809   1.084       .  S
C806        C807   1.408       .  A
C806        C974   1.492       .  S
C807        H810   1.084       .  S
C811        C812   1.413       .  A
C811        C816   1.405   1_655  A
C811        C907   1.499       .  S
C812        C813   1.406       .  A
C812        H817   1.082       .  S
C813        C814   1.400       .  A
C813       C1956   1.481       .  S
C814        C815   1.400       .  A
C814        H818   1.084       .  S
C815        C816   1.396   1_655  A
C815        C917   1.476       .  S
C816        H819   1.083       .  S
C820        C821   1.405       .  A
C820        C825   1.406       .  A
C820        C894   1.486       .  S
C821        C822   1.402       .  A
C821        H826   1.083       .  S
C822        C823   1.403       .  A
C822        C927   1.485       .  S
C823        C824   1.411       .  A
C823        H827   1.084       .  S
C824        C825   1.404       .  A
C824        C887   1.499       .  S
C825        H828   1.083       .  S
O829        C840   1.299       .  A
O829      Eu1897   2.509   1_455  S
O830        C841   1.303       .  A
O830       Eu864   2.544   1_565  S
O831        C842   1.294       .  A
O831      Eu1869   2.484   1_455  S
O832        C843   1.298       .  A
O832       Eu837   2.508       .  S
O833        C843   1.283       .  A
O833       Eu867   2.406       .  S
O834        C842   1.286       .  A
O835        C841   1.270       .  A
O835       Eu837   2.379       .  S
O836        C840   1.283       .  A
O836      Eu1869   2.412   1_455  S
Eu837      O1863   2.484       .  S
Eu837      O1868   2.412       .  S
Eu837       O847   2.345       .  S
Eu837      O1871   2.349       .  S
Eu837       O838   2.343       .  S
Eu837       O845   2.348       .  S
O838       Eu867   2.346       .  S
O838       Eu864   2.341   1_565  S
O839      Eu1869   2.349   1_455  S
O839      Eu1897   2.349   1_455  S
C840       C1014   1.485       .  S
C841        C884   1.515       .  S
C842        C954   1.480       .  S
C843        C997   1.476       .  S
H844        O845   0.966       .  S
O845      Eu1382   2.353   1_565  S
O845       Eu864   2.354   1_565  S
H846        O847   0.966       .  S
O847       Eu865   2.347       .  S
O847       Eu867   2.360       .  S
O848        C871   1.295       .  A
O850       C1905   1.298   1_455  A
O850       Eu866   2.503       .  S
O851        C874   1.296       .  A
O851       Eu867   2.494       .  S
O852       Eu867   2.501       .  S
O853       Eu866   2.518       .  S
O854       C1909   1.300       .  A
O854       Eu868   2.515       .  S
O855        C878   1.295       .  A
O855       Eu868   2.495       .  S
O856        C877   1.279       .  A
O856       Eu866   2.403       .  S
O857       Eu867   2.429       .  S
O858        C873   1.285       .  A
O859        C876   1.278   1_565  A
O859      Eu1897   2.407   1_455  S
O860        C875   1.284       .  A
O861        C874   1.283       .  A
O861       Eu864   2.431   1_565  S
O862        C871   1.287       .  A
O862       Eu868   2.426       .  S
O863        C872   1.287       .  A
Eu864       O882   2.362       .  S
Eu865      O1861   2.509       .  S
Eu865      O1891   2.407       .  S
Eu865      O1871   2.349       .  S
Eu865       O869   2.358       .  S
Eu866      O1361   2.353   1_455  S
Eu866      O1912   2.338   1_455  S
Eu866      O1902   2.359   1_455  S
Eu867       O869   2.349       .  S
Eu867       O882   2.351   1_565  S
Eu868       O880   2.336       .  S
Eu868       O870   2.359       .  S
O870      Eu1898   2.359       .  S
C871        C984   1.481       .  S
C872        C914   1.473       .  S
C873        C904   1.476       .  S
C873       O1882   1.298       .  A
C874        C967   1.507       .  S
C875        C897   1.480       .  S
C877       C1004   1.492       .  S
C877       O1886   1.300   1_455  A
H879       O1912   0.964   1_455  S
O880      Eu1898   2.338       .  S
O880       H1911   0.964       .  S
C883        C884   1.417       .  A
C883        C888   1.413       .  A
C883       Br890   1.920       .  S
C884        C885   1.439       .  A
C885        C886   1.401       .  A
C885       Br892   1.950       .  S
C886        C887   1.406       .  A
C886       Br891   1.937       .  S
C887        C888   1.416       .  A
C888       Br889   1.926       .  S
C893        C894   1.411       .  A
C893        C898   1.405       .  A
C893       Br900   1.929       .  S
C894        C895   1.411       .  A
C895        C896   1.405       .  A
C895       Br902   1.927       .  S
C896        C897   1.406       .  A
C896       Br901   1.920       .  S
C897        C898   1.415       .  A
C898       Br899   1.932       .  S
C903        C904   1.405       .  A
C903       C1940   1.401       .  A
C904       C1937   1.407       .  A
C905       C1936   1.407   1_455  A
C905        C906   1.409       .  A
C905      Br1944   1.920   1_455  S
C906        C907   1.419   1_455  A
C906       Br911   1.931       .  S
C907        C908   1.422       .  A
C908       C1935   1.401       .  A
C908       Br909   1.937       .  S
Br912      C1937   1.920       .  S
C913       C1946   1.412   1_455  A
C913        C918   1.409       .  A
C914       C1945   1.412       .  A
C914        C915   1.408       .  A
C915        C916   1.402       .  A
C915       Br922   1.933       .  S
C916       C1949   1.412       .  A
C916       Br921   1.933       .  S
C917       C1948   1.412       .  A
C917        C918   1.407   1_655  A
C918       Br919   1.929       .  S
C923        C924   1.410       .  A
C923        C928   1.412       .  A
C923       Br930   1.927       .  S
C924       C1957   1.408       .  A
C924       C1845   1.481       .  S
C925       C1956   1.408       .  A
C925       C1958   1.406       .  A
C925       Br932   1.934   1_655  S
C926       C1957   1.406       .  A
C926        C927   1.413       .  A
C926      Br1963   1.928       .  S
C927        C928   1.409       .  A
C928       Br929   1.926       .  S
Br931      C1958   1.928   1_455  S
C933        C934   1.412       .  A
C934        C935   1.407       .  A
C935        C936   1.404       .  A
C935       Br942   1.936       .  S
C936        C937   1.433       .  A
C938       Br939   1.932       .  S
C943        C944   1.430       .  A
C943        C948   1.416       .  A
C945       Br952   1.943       .  S
C946        C947   1.401       .  A
C947        C948   1.404       .  A
C948       Br949   1.932       .  S
C953        C954   1.411       .  A
C953        C958   1.397       .  A
C953       Br960   1.936       .  S
C954        C955   1.415       .  A
C955        C956   1.413       .  A
C955       Br962   1.922       .  S
C956        C957   1.408       .  A
C956       Br961   1.928       .  S
C957        C958   1.410       .  A
C958       Br959   1.935       .  S
C963        C964   1.403       .  A
C963        C968   1.395       .  A
C963       Br970   1.938       .  S
C964        C965   1.432       .  A
C965        C966   1.422       .  A
C965       Br972   1.934       .  S
C966        C967   1.417       .  A
C966       Br971   1.928       .  S
C967        C968   1.419       .  A
C968       Br969   1.914       .  S
C973        C974   1.412       .  A
C973        C978   1.416       .  A
C973       Br980   1.926       .  S
C975        C976   1.406       .  A
C975       Br982   1.925       .  S
C976        C977   1.409       .  A
C976       Br981   1.934       .  S
C978       Br979   1.926       .  S
C983        C984   1.409       .  A
C983        C988   1.401       .  A
C983       Br990   1.937       .  S
C984        C985   1.410       .  A
C985        C986   1.415       .  A
C985       Br992   1.931       .  S
C986        C987   1.418       .  A
C986       Br991   1.925       .  S
C987        C988   1.417       .  A
C988       Br989   1.932       .  S
C993        C994   1.411       .  A
C993        C998   1.415       .  A
C993      Br1000   1.926       .  S
C994        C995   1.409       .  A
C995        C996   1.400       .  A
C995      Br1002   1.930       .  S
C996        C997   1.410       .  A
C996      Br1001   1.929       .  S
C997        C998   1.411       .  A
C998       Br999   1.927       .  S
C1003      C1004   1.420       .  A
C1003      C1008   1.390       .  A
C1003     Br1010   1.936       .  S
C1004      C1005   1.420       .  A
C1005     Br1786   1.927       .  S
C1006     Br1011   1.926       .  S
C1007      C1008   1.401       .  A
C1008     Br1009   1.926       .  S
Br1012     C1779   1.927       .  S
C1013      C1014   1.408       .  A
C1013      C1018   1.413       .  A
C1013     Br1020   1.923       .  S
C1014      C1015   1.411       .  A
C1015      C1016   1.403       .  A
C1015     Br2054   1.936   1_455  S
C1016      C1017   1.420       .  A
C1016     Br1021   1.933       .  S
C1017      C1018   1.418       .  A
C1018     Br1019   1.928       .  S
Br1022     C2047   1.936       .  S
C1023      C1024   1.416       .  A
C1023      C1028   1.409       .  A
C1023     Br1030   1.916       .  S
C1024      C1025   1.413       .  A
C1025      C1026   1.415       .  A
C1025     Br1032   1.931       .  S
C1026      C1027   1.416       .  A
C1026     Br1031   1.924       .  S
C1027      C1028   1.409       .  A
C1028     Br1029   1.932       .  S
C1033      C1292   1.415       .  A
C1033      C1038   1.407       .  A
C1033      C1533   1.502       .  S
C1034      C1291   1.415       .  A
C1034      C1035   1.413       .  A
C1034      H1039   1.083       .  S
C1035      C1036   1.407       .  A
C1035      C1282   1.503       .  S
C1036      C1295   1.410       .  A
C1036      H1040   1.084       .  S
C1037      C1294   1.410       .  A
C1037      C1038   1.397       .  A
C1037      C1523   1.487       .  S
C1038      H1041   1.084       .  S
C1042      C1043   1.403       .  A
C1042      C1047   1.412       .  A
C1042      C1245   1.498       .  S
C1043      C1044   1.397       .  A
C1043      H1048   1.084       .  S
C1044      C1045   1.405       .  A
C1044      C1252   1.481       .  S
C1045      C1046   1.407       .  A
C1045      H1049   1.084       .  S
C1046      C1047   1.414       .  A
C1046      C1285   1.498       .  S
C1047      H1050   1.083       .  S
C1051      C1052   1.402       .  A
C1051      C1056   1.404       .  A
C1051      C1215   1.479       .  S
C1052      C1053   1.400       .  A
C1052      H1057   1.083       .  S
C1053      C1054   1.403       .  A
C1053      C1235   1.486       .  S
C1054      C1055   1.421       .  A
C1054      H1058   1.081       .  S
C1055      C1056   1.403       .  A
C1055      C1222   1.516       .  S
C1056      H1059   1.074       .  S
C1060      C1061   1.402       .  A
C1060      C1065   1.408       .  A
C1060      C1205   1.482       .  S
C1061      C1062   1.400       .  A
C1061      H1066   1.084       .  S
C1062      C1063   1.411       .  A
C1062      C1192   1.494       .  S
C1063      C1064   1.408       .  A
C1063      H1067   1.084       .  S
C1064      C1065   1.408       .  A
C1064      C1232   1.492       .  S
C1065      H1068   1.084       .  S
C1069      C1070   1.413       .  A
C1069      C1074   1.406       .  A
C1069      C1165   1.499       .  S
C1070      C1071   1.406       .  A
C1070      H1075   1.082       .  S
C1071      C1072   1.400       .  A
C1072      C1073   1.400       .  A
C1072      H1076   1.084       .  S
C1073      C1074   1.396       .  A
C1073      C1175   1.476       .  S
C1074      H1077   1.083       .  S
C1078      C1079   1.405       .  A
C1078      C1083   1.406       .  A
C1078      C1152   1.486       .  S
C1079      C1080   1.402       .  A
C1079      H1084   1.083       .  S
C1080      C1081   1.403       .  A
C1080      C1185   1.485       .  S
C1081      C1082   1.411       .  A
C1081      H1085   1.084       .  S
C1082      C1083   1.404       .  A
C1082      C1145   1.499       .  S
C1083      H1086   1.083       .  S
O1087      C1098   1.299       .  A
O1088      C1099   1.303       .  A
O1088     Eu1122   2.544       .  S
O1089      C1100   1.294       .  A
O1090      C1101   1.298       .  A
O1090     Eu1095   2.508       .  S
O1091      C1101   1.283       .  A
O1091     Eu1125   2.406       .  S
O1092      C1100   1.286       .  A
O1092     Eu1640   2.423       .  S
O1093      C1099   1.270       .  A
O1093     Eu1095   2.379       .  S
O1094      C1098   1.283       .  A
Eu1095     O1105   2.345       .  S
Eu1095     O1096   2.343       .  S
Eu1095     O1103   2.348       .  S
O1096     Eu1125   2.346       .  S
O1096     Eu1122   2.341       .  S
O1097     Eu1640   2.351       .  S
C1098      C1272   1.485       .  S
C1099      C1142   1.515       .  S
C1100      C1212   1.480       .  S
C1101      C1255   1.476       .  S
H1102      O1103   0.966       .  S
O1103     Eu1122   2.354       .  S
H1104      O1105   0.966       .  S
O1105     Eu1123   2.347       .  S
O1105     Eu1125   2.360       .  S
O1106      C1129   1.295       .  A
O1106     Eu1638   2.488       .  S
O1107      C1646   1.294       .  A
O1107     Eu1381   2.482       .  S
O1108     Eu1124   2.503       .  S
O1109      C1132   1.295       .  A
O1109     Eu1125   2.494       .  S
O1110      C1391   1.298       .  A
O1110     Eu1125   2.501   1_556  S
O1111      C1650   1.300       .  A
O1111     Eu1124   2.518       .  S
O1112     Eu1126   2.515       .  S
O1113      C1136   1.295       .  A
O1113     Eu1126   2.495       .  S
O1114      C1135   1.279       .  A
O1114     Eu1124   2.403       .  S
O1115      C1652   1.282       .  A
O1115     Eu1125   2.429       .  S
O1116      C1131   1.285       .  A
O1116     Eu1638   2.419       .  S
O1117      C1134   1.278   1_556  A
O1118      C1133   1.284       .  A
O1118     Eu1381   2.415       .  S
O1119      C1132   1.283       .  A
O1119     Eu1122   2.431       .  S
O1120      C1129   1.287       .  A
O1120     Eu1126   2.426       .  S
O1121      C1130   1.287       .  A
O1121     Eu1384   2.428       .  S
Eu1122     O1622   2.488       .  S
Eu1122     O1632   2.419       .  S
Eu1122     O1140   2.362       .  S
Eu1122     O1644   2.369       .  S
Eu1123     O1365   2.482   1_554  S
Eu1123     O1376   2.415   1_554  S
Eu1123     O1127   2.358       .  S
Eu1123     O1654   2.336       .  S
Eu1124     O1608   2.422   1_545  S
Eu1124     O1613   2.351   1_545  S
Eu1125     O1127   2.349       .  S
Eu1125     O1140   2.351       .  S
Eu1126     O1379   2.428   1_554  S
Eu1126     O1643   2.355   1_545  S
Eu1126     O1138   2.336       .  S
Eu1126     O1656   2.361       .  S
Eu1126     O1128   2.359       .  S
O1127     Eu1642   2.355       .  S
O1128     Eu1638   2.369       .  S
C1129      C1242   1.481       .  S
C1130      C1172   1.473       .  S
C1130      O1623   1.294       .  A
C1131      C1162   1.476       .  S
C1132      C1225   1.507       .  S
C1133      C1155   1.480       .  S
C1133      O1368   1.298       .  A
C1134      C1969   1.509   1_554  S
C1134      O1627   1.300       .  A
C1135      C1262   1.492       .  S
C1136      C1460   1.516   1_554  S
C1136      O1631   1.282   1_545  A
O1138     Eu1639   2.336   1_545  S
H1139      O1656   0.966       .  S
O1140     Eu1642   2.361       .  S
O1140      H1655   0.966       .  S
C1141      C1142   1.417       .  A
C1141      C1146   1.413       .  A
C1141     Br1148   1.920       .  S
C1142      C1143   1.439       .  A
C1143      C1144   1.401       .  A
C1143     Br1150   1.950       .  S
C1144      C1145   1.406       .  A
C1144     Br1149   1.937       .  S
C1145      C1146   1.416       .  A
C1146     Br1147   1.926       .  S
C1151      C1152   1.411       .  A
C1151      C1156   1.405       .  A
C1151     Br1158   1.929       .  S
C1152      C1153   1.411       .  A
C1153      C1154   1.405       .  A
C1153     Br1160   1.927       .  S
C1154      C1155   1.406       .  A
C1154     Br1159   1.920       .  S
C1155      C1156   1.415       .  A
C1156     Br1157   1.932       .  S
C1161      C1162   1.405       .  A
C1161     Br1684   1.930       .  S
C1163      C1164   1.409       .  A
C1164      C1165   1.419       .  A
C1164     Br1169   1.931       .  S
C1165      C1166   1.422       .  A
C1166     Br1167   1.937       .  S
Br1168     C1677   1.930       .  S
C1171      C1176   1.409       .  A
C1171     Br1694   1.924       .  S
C1172      C1173   1.408       .  A
C1173      C1174   1.402       .  A
C1173     Br1180   1.933       .  S
C1174     Br1179   1.933       .  S
C1175      C1176   1.407       .  A
C1176     Br1177   1.929       .  S
Br1178     C1687   1.924       .  S
C1181      C1182   1.410       .  A
C1181      C1186   1.412       .  A
C1181     Br1188   1.927       .  S
C1183     Br1190   1.934       .  S
C1184      C1185   1.413       .  A
C1185      C1186   1.409       .  A
C1186     Br1187   1.926       .  S
C1191      C1192   1.412       .  A
C1191      C1454   1.418       .  A
C1191     Br1456   1.932       .  S
C1192      C1193   1.407   1_545  A
C1193      C1194   1.404       .  A
C1193     Br1200   1.936       .  S
C1194      C1195   1.433   1_565  A
C1194     Br1715   1.946       .  S
C1195      C1454   1.423       .  A
C1195      C1908   1.509       .  S
C1196      C1449   1.418       .  A
C1196      C1453   1.423       .  A
C1196     Br1197   1.932   1_556  S
Br1198     C1449   1.932       .  S
Br1199     C1710   1.946       .  S
C1201      C1202   1.430       .  A
C1201      C1206   1.416       .  A
C1201     Br1466   1.936       .  S
C1202      C1719   1.437   1_545  A
C1202      C1394   1.516       .  S
C1203      C1718   1.437       .  A
C1203      C1720   1.407       .  A
C1203     Br1210   1.943       .  S
C1204      C1719   1.407       .  A
C1204      C1205   1.401   1_565  A
C1204     Br1725   1.939       .  S
C1205      C1206   1.404       .  A
C1206     Br1207   1.932       .  S
Br1208     C1459   1.936       .  S
Br1209     C1720   1.939       .  S
C1211      C1212   1.411       .  A
C1211      C1216   1.397       .  A
C1211     Br1218   1.936       .  S
C1212      C1213   1.415       .  A
C1213      C1214   1.413       .  A
C1213     Br1220   1.922       .  S
C1214      C1215   1.408       .  A
C1214     Br1219   1.928       .  S
C1215      C1216   1.410       .  A
C1216     Br1217   1.935       .  S
C1221      C1222   1.403       .  A
C1221      C1226   1.395       .  A
C1221     Br1228   1.938       .  S
C1222      C1223   1.432       .  A
C1223      C1224   1.422       .  A
C1223     Br1230   1.934       .  S
C1224      C1225   1.417       .  A
C1224     Br1229   1.928       .  S
C1225      C1226   1.419       .  A
C1226     Br1227   1.914       .  S
C1231      C1232   1.412       .  A
C1231      C1236   1.416       .  A
C1231     Br1238   1.926       .  S
C1232      C1749   1.412   1_545  A
C1233      C1748   1.412       .  A
C1233      C1234   1.406       .  A
C1233     Br1240   1.925       .  S
C1234      C1235   1.409       .  A
C1234     Br1239   1.934       .  S
C1235      C1752   1.410       .  A
C1236      C1751   1.410   1_545  A
C1236     Br1237   1.926       .  S
C1241      C1242   1.409       .  A
C1241      C1246   1.401       .  A
C1241     Br1248   1.937       .  S
C1242      C1243   1.410       .  A
C1243      C1244   1.415       .  A
C1243     Br1250   1.931       .  S
C1244      C1245   1.418       .  A
C1244     Br1249   1.925       .  S
C1245      C1246   1.417       .  A
C1246     Br1247   1.932       .  S
C1251      C1252   1.411       .  A
C1251      C1256   1.415       .  A
C1251     Br1258   1.926       .  S
C1252      C1253   1.409       .  A
C1253      C1254   1.400       .  A
C1253     Br1260   1.930       .  S
C1254      C1255   1.410       .  A
C1254     Br1259   1.929       .  S
C1255      C1256   1.411       .  A
C1256     Br1257   1.927       .  S
C1261      C1262   1.420       .  A
C1261      C1266   1.390       .  A
C1261     Br1268   1.936       .  S
C1262      C1263   1.420   1_554  A
C1263      C1522   1.421       .  A
C1264      C1521   1.421       .  A
C1264      C1523   1.412       .  A
C1264     Br1269   1.926       .  S
C1265      C1522   1.412   1_554  A
C1265      C1266   1.401       .  A
C1265      C1295   1.487       .  S
C1266     Br1267   1.926       .  S
C1271      C1272   1.408       .  A
C1271      C1276   1.413       .  A
C1271     Br1278   1.923       .  S
C1272      C1273   1.411       .  A
C1273      C1274   1.403       .  A
C1274      C1275   1.420       .  A
C1274     Br1279   1.933       .  S
C1275      C1276   1.418       .  A
C1275      C1291   1.502       .  S
C1276     Br1277   1.928   1_554  S
C1281      C1282   1.416       .  A
C1281      C1286   1.409       .  A
C1281     Br1288   1.916       .  S
C1282      C1283   1.413       .  A
C1283      C1284   1.415       .  A
C1283     Br1290   1.931   1_554  S
C1284      C1285   1.416       .  A
C1284     Br1289   1.924       .  S
C1285      C1286   1.409       .  A
C1286     Br1287   1.932       .  S
C1291      C1296   1.407       .  A
C1292      C1293   1.413       .  A
C1292      H1297   1.083       .  S
C1293      C1294   1.407       .  A
C1293      C1540   1.503       .  S
C1294      H1298   1.084       .  S
C1295      C1296   1.397       .  A
C1296      H1299   1.084       .  S
C1300      C1301   1.403       .  A
C1300      C1305   1.412       .  A
C1300      C1503   1.498       .  S
C1301      C1302   1.397       .  A
C1301      H1306   1.084       .  S
C1302      C1303   1.405       .  A
C1302      C1510   1.481       .  S
C1303      C1304   1.407       .  A
C1303      H1307   1.084       .  S
C1304      C1305   1.414       .  A
C1304      C1543   1.498       .  S
C1305      H1308   1.083       .  S
C1309      C1310   1.402       .  A
C1309      C1314   1.404       .  A
C1309      C1473   1.479       .  S
C1310      C1311   1.400       .  A
C1310      H1315   1.083       .  S
C1311      C1312   1.403       .  A
C1311      C1493   1.486       .  S
C1312      C1313   1.421       .  A
C1312      H1316   1.081       .  S
C1313      C1314   1.403       .  A
C1313      C1480   1.516       .  S
C1314      H1317   1.074       .  S
C1318      C1319   1.402       .  A
C1318      C1323   1.408       .  A
C1318      C1463   1.482       .  S
C1319      C1320   1.400       .  A
C1319      H1324   1.084       .  S
C1320      C1321   1.411       .  A
C1320      C1450   1.494       .  S
C1321      C1322   1.408       .  A
C1321      H1325   1.084       .  S
C1322      C1323   1.408       .  A
C1322      C1490   1.492       .  S
C1323      H1326   1.084       .  S
C1327      C1328   1.413       .  A
C1327      C1332   1.406       .  A
C1327      C1423   1.499       .  S
C1328      C1329   1.406       .  A
C1328      H1333   1.082       .  S
C1329      C1330   1.400       .  A
C1330      C1331   1.400       .  A
C1330      H1334   1.084       .  S
C1331      C1332   1.396       .  A
C1331      C1433   1.476       .  S
C1332      H1335   1.083       .  S
C1336      C1337   1.405       .  A
C1336      C1341   1.406       .  A
C1336      C1410   1.486       .  S
C1337      C1338   1.402       .  A
C1337      H1342   1.083       .  S
C1338      C1339   1.403       .  A
C1338      C1443   1.485       .  S
C1339      C1340   1.411       .  A
C1339      H1343   1.084       .  S
C1340      C1341   1.404       .  A
C1340      C1403   1.499       .  S
C1341      H1344   1.083       .  S
O1345      C1356   1.299       .  A
O1346      C1357   1.303       .  A
O1346     Eu1380   2.544       .  S
O1347      C1358   1.294       .  A
O1348      C1359   1.298       .  A
O1348     Eu1353   2.508       .  S
O1349      C1359   1.283       .  A
O1349     Eu1383   2.406       .  S
O1350      C1358   1.286       .  A
O1350     Eu1898   2.422       .  S
O1351      C1357   1.270       .  A
O1351     Eu1353   2.379       .  S
O1352      C1356   1.283       .  A
Eu1353     O1363   2.345       .  S
Eu1353     O1354   2.343       .  S
Eu1353     O1361   2.348       .  S
O1354     Eu1383   2.346       .  S
O1354     Eu1380   2.341       .  S
O1355     Eu1898   2.351       .  S
C1356      C1530   1.485       .  S
C1357      C1400   1.515       .  S
C1358      C1470   1.480       .  S
C1359      C1513   1.476       .  S
H1360      O1361   0.966       .  S
O1361     Eu1380   2.354       .  S
H1362      O1363   0.966       .  S
O1363     Eu1381   2.347       .  S
O1363     Eu1383   2.360       .  S
O1364      C1387   1.295       .  A
O1364     Eu1896   2.488       .  S
O1365      C1904   1.294       .  A
O1366     Eu1382   2.503       .  S
O1367      C1390   1.295       .  A
O1367     Eu1383   2.494       .  S
O1368     Eu1383   2.501       .  S
O1369      C1908   1.300       .  A
O1369     Eu1382   2.518       .  S
O1370     Eu1384   2.515       .  S
O1371      C1394   1.295       .  A
O1371     Eu1384   2.495       .  S
O1372      C1393   1.279       .  A
O1372     Eu1382   2.403       .  S
O1373      C1910   1.282       .  A
O1373     Eu1383   2.429       .  S
O1374      C1389   1.285       .  A
O1374     Eu1896   2.419       .  S
O1375      C1392   1.278       .  A
O1376      C1391   1.284       .  A
O1377      C1390   1.283       .  A
O1377     Eu1380   2.431       .  S
O1378      C1387   1.287       .  A
O1378     Eu1384   2.426       .  S
O1379      C1388   1.287       .  A
Eu1380     O1880   2.488       .  S
Eu1380     O1890   2.419       .  S
Eu1380     O1398   2.362       .  S
Eu1380     O1902   2.369       .  S
Eu1381     O1385   2.358       .  S
Eu1381     O1912   2.336       .  S
Eu1382     O1866   2.423   1_545  S
Eu1382     O1871   2.351   1_545  S
Eu1383     O1385   2.349       .  S
Eu1383     O1398   2.351       .  S
Eu1384     O1901   2.355   1_545  S
Eu1384     O1396   2.336       .  S
Eu1384     O1914   2.361       .  S
Eu1384     O1386   2.359       .  S
O1385     Eu1900   2.355       .  S
O1386     Eu1896   2.369       .  S
C1387      C1500   1.481       .  S
C1388      C1430   1.473       .  S
C1388      O1881   1.294       .  A
C1389      C1420   1.476       .  S
C1390      C1483   1.507       .  S
C1391      C1413   1.480       .  S
C1392      C1711   1.509       .  S
C1392      O1885   1.300       .  A
C1393      C1520   1.492       .  S
C1394      O1889   1.282   1_545  A
O1396     Eu1897   2.336   1_545  S
H1397      O1914   0.966       .  S
O1398     Eu1900   2.361       .  S
O1398      H1913   0.966       .  S
C1399      C1400   1.417       .  A
C1399      C1404   1.413       .  A
C1399     Br1406   1.920       .  S
C1400      C1401   1.439       .  A
C1401      C1402   1.401       .  A
C1401     Br1408   1.950       .  S
C1402      C1403   1.406       .  A
C1402     Br1407   1.937       .  S
C1403      C1404   1.416       .  A
C1404     Br1405   1.926       .  S
C1409      C1410   1.411       .  A
C1409      C1414   1.405       .  A
C1409     Br1416   1.929       .  S
C1410      C1411   1.411       .  A
C1411      C1412   1.405       .  A
C1411     Br1418   1.927       .  S
C1412      C1413   1.406       .  A
C1412     Br1417   1.920       .  S
C1413      C1414   1.415       .  A
C1414     Br1415   1.932       .  S
C1419      C1420   1.405       .  A
C1419     Br1942   1.930       .  S
C1421      C1422   1.409       .  A
C1422      C1423   1.419       .  A
C1422     Br1427   1.931       .  S
C1423      C1424   1.422       .  A
C1424     Br1425   1.937       .  S
Br1426     C1935   1.930       .  S
C1429      C1434   1.409       .  A
C1429     Br1952   1.924       .  S
C1430      C1431   1.408       .  A
C1431      C1432   1.402       .  A
C1431     Br1438   1.933       .  S
C1432     Br1437   1.933       .  S
C1433      C1434   1.407       .  A
C1434     Br1435   1.929       .  S
Br1436     C1945   1.924       .  S
C1439      C1440   1.410       .  A
C1439      C1444   1.412       .  A
C1439     Br1446   1.927       .  S
C1441     Br1448   1.934       .  S
C1442      C1443   1.413       .  A
C1443      C1444   1.409       .  A
C1444     Br1445   1.926       .  S
C1449      C1450   1.412       .  A
C1450      C1451   1.407   1_545  A
C1451      C1452   1.404       .  A
C1451     Br1458   1.936       .  S
C1452      C1453   1.433   1_565  A
C1452     Br1973   1.946       .  S
C1453      C1650   1.509   1_556  S
C1454     Br1455   1.932       .  S
Br1457     C1968   1.946       .  S
C1459      C1460   1.430       .  A
C1459      C1464   1.416       .  A
C1460      C1977   1.437   1_545  A
C1461      C1976   1.437       .  A
C1461      C1978   1.407       .  A
C1461     Br1468   1.943       .  S
C1462      C1977   1.407       .  A
C1462      C1463   1.401   1_565  A
C1462     Br1983   1.939       .  S
C1463      C1464   1.404       .  A
C1464     Br1465   1.932       .  S
Br1467     C1978   1.939       .  S
C1469      C1470   1.411       .  A
C1469      C1474   1.397       .  A
C1469     Br1476   1.936       .  S
C1470      C1471   1.415       .  A
C1471      C1472   1.413       .  A
C1471     Br1478   1.922       .  S
C1472      C1473   1.408       .  A
C1472     Br1477   1.928       .  S
C1473      C1474   1.410       .  A
C1474     Br1475   1.935       .  S
C1479      C1480   1.403       .  A
C1479      C1484   1.395       .  A
C1479     Br1486   1.938       .  S
C1480      C1481   1.432       .  A
C1481      C1482   1.422       .  A
C1481     Br1488   1.934       .  S
C1482      C1483   1.417       .  A
C1482     Br1487   1.928       .  S
C1483      C1484   1.419       .  A
C1484     Br1485   1.915       .  S
C1489      C1490   1.412       .  A
C1489      C1494   1.416       .  A
C1489     Br1496   1.926       .  S
C1490      C2007   1.412   1_545  A
C1491      C2006   1.412       .  A
C1491      C1492   1.406       .  A
C1491     Br1498   1.925       .  S
C1492      C1493   1.409       .  A
C1492     Br1497   1.934       .  S
C1493      C2010   1.410       .  A
C1494      C2009   1.410   1_545  A
C1494     Br1495   1.926       .  S
C1499      C1500   1.409       .  A
C1499      C1504   1.401       .  A
C1499     Br1506   1.937       .  S
C1500      C1501   1.410       .  A
C1501      C1502   1.415       .  A
C1501     Br1508   1.931       .  S
C1502      C1503   1.418       .  A
C1502     Br1507   1.925       .  S
C1503      C1504   1.417       .  A
C1504     Br1505   1.932       .  S
C1509      C1510   1.411       .  A
C1509      C1514   1.415       .  A
C1509     Br1516   1.926       .  S
C1510      C1511   1.409       .  A
C1511      C1512   1.400       .  A
C1511     Br1518   1.930       .  S
C1512      C1513   1.410       .  A
C1512     Br1517   1.929       .  S
C1513      C1514   1.411       .  A
C1514     Br1515   1.927       .  S
C1519      C1520   1.420       .  A
C1519      C1524   1.390       .  A
C1519     Br1526   1.936       .  S
C1520      C1521   1.420       .  A
C1522     Br1527   1.926       .  S
C1523      C1524   1.401       .  A
C1524     Br1525   1.926       .  S
C1529      C1530   1.408       .  A
C1529      C1534   1.413       .  A
C1529     Br1536   1.923       .  S
C1530      C1531   1.411       .  A
C1531      C1532   1.403       .  A
C1532      C1533   1.420       .  A
C1532     Br1537   1.933       .  S
C1533      C1534   1.418       .  A
C1534     Br1535   1.928       .  S
C1539      C1540   1.416       .  A
C1539      C1544   1.409       .  A
C1539     Br1546   1.916       .  S
C1540      C1541   1.413       .  A
C1541      C1542   1.415       .  A
C1541     Br1548   1.931       .  S
C1542      C1543   1.416       .  A
C1542     Br1547   1.924       .  S
C1543      C1544   1.409       .  A
C1544     Br1545   1.932       .  S
C1549      C1808   1.415       .  A
C1549      C1554   1.407       .  A
C1549      C2049   1.502       .  S
C1550      C1807   1.415       .  A
C1550      C1551   1.413       .  A
C1550      H1555   1.083       .  S
C1551      C1552   1.407       .  A
C1551      C1798   1.503       .  S
C1552      C1811   1.410       .  A
C1552      H1556   1.084       .  S
C1553      C1810   1.410       .  A
C1553      C1554   1.397       .  A
C1553      C2039   1.487       .  S
C1554      H1557   1.084       .  S
C1558      C1559   1.403       .  A
C1558      C1563   1.412       .  A
C1558      C1761   1.498       .  S
C1559      C1560   1.397       .  A
C1559      H1564   1.084       .  S
C1560      C1561   1.405       .  A
C1560      C1768   1.481       .  S
C1561      C1562   1.407       .  A
C1561      H1565   1.084       .  S
C1562      C1563   1.414       .  A
C1562      C1801   1.498       .  S
C1563      H1566   1.083       .  S
C1567      C1568   1.402       .  A
C1567      C1572   1.404       .  A
C1567      C1731   1.479       .  S
C1568      C1569   1.400       .  A
C1568      H1573   1.083       .  S
C1569      C1570   1.403       .  A
C1569      C1751   1.486       .  S
C1570      C1571   1.421       .  A
C1570      H1574   1.081       .  S
C1571      C1572   1.403       .  A
C1571      C1738   1.516       .  S
C1572      H1575   1.074       .  S
C1576      C1577   1.402       .  A
C1576      C1581   1.408       .  A
C1576      C1721   1.482       .  S
C1577      C1578   1.400       .  A
C1577      H1582   1.084       .  S
C1578      C1579   1.411       .  A
C1578      C1708   1.494       .  S
C1579      C1580   1.408       .  A
C1579      H1583   1.084       .  S
C1580      C1581   1.408       .  A
C1580      C1748   1.492       .  S
C1581      H1584   1.084       .  S
C1585      C1586   1.413       .  A
C1585      C1590   1.406       .  A
C1585      C1681   1.499       .  S
C1586      C1587   1.406       .  A
C1586      H1591   1.082       .  S
C1587      C1588   1.400       .  A
C1588      C1589   1.400       .  A
C1588      H1592   1.084       .  S
C1589      C1590   1.396       .  A
C1589      C1691   1.476       .  S
C1590      H1593   1.083       .  S
C1594      C1595   1.405       .  A
C1594      C1599   1.406       .  A
C1594      C1668   1.486       .  S
C1595      C1596   1.402       .  A
C1595      H1600   1.083       .  S
C1596      C1597   1.403       .  A
C1596      C1701   1.485       .  S
C1597      C1598   1.411       .  A
C1597      H1601   1.084       .  S
C1598      C1599   1.404       .  A
C1598      C1661   1.499       .  S
C1599      H1602   1.083       .  S
O1603      C1614   1.299       .  A
O1604      C1615   1.303       .  A
O1604     Eu1638   2.544   1_565  S
O1605      C1616   1.294       .  A
O1606      C1617   1.298       .  A
O1606     Eu1611   2.508       .  S
O1607      C1617   1.283       .  A
O1607     Eu1641   2.406       .  S
O1608      C1616   1.286       .  A
O1609      C1615   1.270       .  A
O1609     Eu1611   2.379       .  S
O1610      C1614   1.283       .  A
Eu1611     O1621   2.345       .  S
Eu1611     O1612   2.343       .  S
Eu1611     O1619   2.348       .  S
O1612     Eu1641   2.346       .  S
O1612     Eu1638   2.341   1_565  S
C1614      C1788   1.485       .  S
C1615      C1658   1.515       .  S
C1616      C1728   1.480       .  S
C1617      C1771   1.476       .  S
H1618      O1619   0.966       .  S
O1619     Eu1638   2.354   1_565  S
H1620      O1621   0.966       .  S
O1621     Eu1639   2.347       .  S
O1621     Eu1641   2.360       .  S
O1622      C1645   1.295       .  A
O1623     Eu1897   2.482   1_545  S
O1624     Eu1640   2.503       .  S
O1625      C1648   1.296       .  A
O1625     Eu1641   2.494       .  S
O1626      C1907   1.298       .  A
O1626     Eu1641   2.501   1_556  S
O1627     Eu1640   2.518       .  S
O1628     Eu1642   2.515       .  S
O1629      C1652   1.295       .  A
O1629     Eu1642   2.495       .  S
O1630      C1651   1.279       .  A
O1630     Eu1640   2.403       .  S
O1631     Eu1641   2.429       .  S
O1632      C1647   1.285       .  A
O1633      C1650   1.278   1_566  A
O1634      C1649   1.284       .  A
O1634     Eu1897   2.415       .  S
O1635      C1648   1.283       .  A
O1635     Eu1638   2.431   1_565  S
O1636      C1645   1.287       .  A
O1636     Eu1642   2.426       .  S
O1637      C1646   1.287       .  A
O1637     Eu1900   2.428       .  S
Eu1638     O1656   2.362       .  S
Eu1639     O1881   2.482   1_564  S
Eu1639     O1892   2.415   1_554  S
Eu1639     O1643   2.358       .  S
Eu1641     O1643   2.349       .  S
Eu1641     O1656   2.351   1_565  S
Eu1642     O1895   2.428   1_554  S
Eu1642     O1654   2.336       .  S
Eu1642     O1644   2.359       .  S
C1645      C1758   1.481       .  S
C1646      C1688   1.473       .  S
C1647      C1678   1.476       .  S
C1648      C1741   1.507       .  S
C1649      C1671   1.480       .  S
C1649      O1884   1.298       .  A
C1651      C1778   1.492       .  S
C1652      C1976   1.516   1_554  S
C1657      C1658   1.417       .  A
C1657      C1662   1.413       .  A
C1657     Br1664   1.920       .  S
C1658      C1659   1.439       .  A
C1659      C1660   1.401       .  A
C1659     Br1666   1.950       .  S
C1660      C1661   1.406       .  A
C1660     Br1665   1.937       .  S
C1661      C1662   1.416       .  A
C1662     Br1663   1.926       .  S
C1667      C1668   1.411       .  A
C1667      C1672   1.405       .  A
C1667     Br1674   1.929       .  S
C1668      C1669   1.411       .  A
C1669      C1670   1.405       .  A
C1669     Br1676   1.927       .  S
C1670      C1671   1.406       .  A
C1670     Br1675   1.920       .  S
C1671      C1672   1.415       .  A
C1672     Br1673   1.932       .  S
C1677      C1678   1.405       .  A
C1679      C1680   1.409       .  A
C1680      C1681   1.419       .  A
C1680     Br1685   1.931       .  S
C1681      C1682   1.422       .  A
C1682     Br1683   1.937       .  S
C1687      C1692   1.409       .  A
C1688      C1689   1.408       .  A
C1689      C1690   1.402       .  A
C1689     Br1696   1.933       .  S
C1690     Br1695   1.933       .  S
C1691      C1692   1.407       .  A
C1692     Br1693   1.929       .  S
C1697      C1698   1.410       .  A
C1697      C1702   1.412       .  A
C1697     Br1704   1.927       .  S
C1699     Br1706   1.934       .  S
C1700      C1701   1.413       .  A
C1701      C1702   1.409       .  A
C1702     Br1703   1.926       .  S
C1707      C1708   1.412       .  A
C1707      C1970   1.418       .  A
C1707     Br1972   1.932       .  S
C1708      C1709   1.407       .  A
C1709      C1710   1.404       .  A
C1709     Br1716   1.936       .  S
C1710      C1711   1.433       .  A
C1711      C1970   1.423       .  A
C1712      C1965   1.418       .  A
C1712      C1969   1.423       .  A
C1712     Br1713   1.932   1_556  S
Br1714     C1965   1.932       .  S
C1717      C1718   1.430       .  A
C1717      C1722   1.416       .  A
C1717     Br1982   1.936       .  S
C1718      C1910   1.516       .  S
C1719     Br1726   1.943       .  S
C1720      C1721   1.401       .  A
C1721      C1722   1.404       .  A
C1722     Br1723   1.932       .  S
Br1724     C1975   1.936       .  S
C1727      C1728   1.411       .  A
C1727      C1732   1.397       .  A
C1727     Br1734   1.936       .  S
C1728      C1729   1.415       .  A
C1729      C1730   1.413       .  A
C1729     Br1736   1.922       .  S
C1730      C1731   1.408       .  A
C1730     Br1735   1.928       .  S
C1731      C1732   1.410       .  A
C1732     Br1733   1.935       .  S
C1737      C1738   1.403       .  A
C1737      C1742   1.395       .  A
C1737     Br1744   1.938       .  S
C1738      C1739   1.432       .  A
C1739      C1740   1.422       .  A
C1739     Br1746   1.934       .  S
C1740      C1741   1.417       .  A
C1740     Br1745   1.928       .  S
C1741      C1742   1.419       .  A
C1742     Br1743   1.914       .  S
C1747      C1748   1.412       .  A
C1747      C1752   1.416       .  A
C1747     Br1754   1.926       .  S
C1749      C1750   1.406       .  A
C1749     Br1756   1.925       .  S
C1750      C1751   1.409       .  A
C1750     Br1755   1.934       .  S
C1752     Br1753   1.926       .  S
C1757      C1758   1.409       .  A
C1757      C1762   1.401       .  A
C1757     Br1764   1.937       .  S
C1758      C1759   1.410       .  A
C1759      C1760   1.415       .  A
C1759     Br1766   1.931       .  S
C1760      C1761   1.418       .  A
C1760     Br1765   1.925       .  S
C1761      C1762   1.417       .  A
C1762     Br1763   1.932       .  S
C1767      C1768   1.411       .  A
C1767      C1772   1.415       .  A
C1767     Br1774   1.926       .  S
C1768      C1769   1.409       .  A
C1769      C1770   1.400       .  A
C1769     Br1776   1.930       .  S
C1770      C1771   1.410       .  A
C1770     Br1775   1.929       .  S
C1771      C1772   1.411       .  A
C1772     Br1773   1.927       .  S
C1777      C1778   1.420       .  A
C1777      C1782   1.390       .  A
C1777     Br1784   1.936       .  S
C1778      C1779   1.420   1_554  A
C1779      C2038   1.421       .  A
C1780      C2037   1.421       .  A
C1780      C2039   1.412       .  A
C1780     Br1785   1.926       .  S
C1781      C2038   1.412   1_554  A
C1781      C1782   1.401       .  A
C1781      C1811   1.487       .  S
C1782     Br1783   1.926       .  S
C1787      C1788   1.408       .  A
C1787      C1792   1.413       .  A
C1787     Br1794   1.923       .  S
C1788      C1789   1.411       .  A
C1789      C1790   1.403       .  A
C1790      C1791   1.420       .  A
C1790     Br1795   1.933       .  S
C1791      C1792   1.418       .  A
C1791      C1807   1.502       .  S
C1792     Br1793   1.928   1_554  S
C1797      C1798   1.416       .  A
C1797      C1802   1.409       .  A
C1797     Br1804   1.916       .  S
C1798      C1799   1.413       .  A
C1799      C1800   1.415       .  A
C1799     Br1806   1.931   1_554  S
C1800      C1801   1.416       .  A
C1800     Br1805   1.924       .  S
C1801      C1802   1.409       .  A
C1802     Br1803   1.932       .  S
C1807      C1812   1.407       .  A
C1808      C1809   1.413       .  A
C1808      H1813   1.083       .  S
C1809      C1810   1.407       .  A
C1809      C2056   1.503       .  S
C1810      H1814   1.084       .  S
C1811      C1812   1.397       .  A
C1812      H1815   1.084       .  S
C1816      C1817   1.403       .  A
C1816      C1821   1.412       .  A
C1816      C2019   1.498       .  S
C1817      C1818   1.397       .  A
C1817      H1822   1.084       .  S
C1818      C1819   1.405       .  A
C1818      C2026   1.481       .  S
C1819      C1820   1.407       .  A
C1819      H1823   1.084       .  S
C1820      C1821   1.414       .  A
C1820      C2059   1.498       .  S
C1821      H1824   1.083       .  S
C1825      C1826   1.402       .  A
C1825      C1830   1.404       .  A
C1825      C1989   1.479       .  S
C1826      C1827   1.400       .  A
C1826      H1831   1.083       .  S
C1827      C1828   1.403       .  A
C1827      C2009   1.486       .  S
C1828      C1829   1.421       .  A
C1828      H1832   1.081       .  S
C1829      C1830   1.403       .  A
C1829      C1996   1.516       .  S
C1830      H1833   1.074       .  S
C1834      C1835   1.402       .  A
C1834      C1839   1.408       .  A
C1834      C1979   1.482       .  S
C1835      C1836   1.400       .  A
C1835      H1840   1.084       .  S
C1836      C1837   1.411       .  A
C1836      C1966   1.494       .  S
C1837      C1838   1.408       .  A
C1837      H1841   1.084       .  S
C1838      C1839   1.408       .  A
C1838      C2006   1.492       .  S
C1839      H1842   1.084       .  S
C1843      C1844   1.413       .  A
C1843      C1848   1.406       .  A
C1843      C1939   1.499       .  S
C1844      C1845   1.406       .  A
C1844      H1849   1.082       .  S
C1845      C1846   1.400       .  A
C1846      C1847   1.400       .  A
C1846      H1850   1.084       .  S
C1847      C1848   1.396       .  A
C1847      C1949   1.476       .  S
C1848      H1851   1.083       .  S
C1852      C1853   1.405       .  A
C1852      C1857   1.406       .  A
C1852      C1926   1.486       .  S
C1853      C1854   1.402       .  A
C1853      H1858   1.083       .  S
C1854      C1855   1.403       .  A
C1854      C1959   1.485       .  S
C1855      C1856   1.411       .  A
C1855      H1859   1.084       .  S
C1856      C1857   1.404       .  A
C1856      C1919   1.499       .  S
C1857      H1860   1.083       .  S
O1861      C1872   1.299       .  A
O1862      C1873   1.303       .  A
O1862     Eu1896   2.544   1_565  S
O1863      C1874   1.294       .  A
O1864      C1875   1.298       .  A
O1864     Eu1869   2.508       .  S
O1865      C1875   1.283       .  A
O1865     Eu1899   2.406       .  S
O1866      C1874   1.286       .  A
O1867      C1873   1.270       .  A
O1867     Eu1869   2.379       .  S
O1868      C1872   1.283       .  A
Eu1869     O1879   2.345       .  S
Eu1869     O1870   2.343       .  S
Eu1869     O1877   2.348       .  S
O1870     Eu1899   2.346       .  S
O1870     Eu1896   2.341   1_565  S
C1872      C2046   1.485       .  S
C1873      C1916   1.515       .  S
C1874      C1986   1.480       .  S
C1875      C2029   1.476       .  S
H1876      O1877   0.966       .  S
O1877     Eu1896   2.354   1_565  S
H1878      O1879   0.966       .  S
O1879     Eu1897   2.347       .  S
O1879     Eu1899   2.360       .  S
O1880      C1903   1.295       .  A
O1882     Eu1898   2.503       .  S
O1883      C1906   1.295       .  A
O1883     Eu1899   2.494       .  S
O1884     Eu1899   2.501       .  S
O1885     Eu1898   2.518       .  S
O1886     Eu1900   2.515       .  S
O1887      C1910   1.295       .  A
O1887     Eu1900   2.495       .  S
O1888      C1909   1.279       .  A
O1888     Eu1898   2.403       .  S
O1889     Eu1899   2.429       .  S
O1890      C1905   1.285       .  A
O1891      C1908   1.278   1_565  A
O1892      C1907   1.284       .  A
O1893      C1906   1.283       .  A
O1893     Eu1896   2.431   1_565  S
O1894      C1903   1.287       .  A
O1894     Eu1900   2.426       .  S
O1895      C1904   1.287       .  A
Eu1896     O1914   2.362       .  S
Eu1897     O1901   2.358       .  S
Eu1899     O1901   2.349       .  S
Eu1899     O1914   2.351   1_565  S
Eu1900     O1912   2.336       .  S
Eu1900     O1902   2.359       .  S
C1903      C2016   1.481       .  S
C1904      C1946   1.473       .  S
C1905      C1936   1.476       .  S
C1906      C1999   1.507       .  S
C1907      C1929   1.480       .  S
C1909      C2036   1.492       .  S
C1915      C1916   1.417       .  A
C1915      C1920   1.413       .  A
C1915     Br1922   1.920       .  S
C1916      C1917   1.439       .  A
C1917      C1918   1.401       .  A
C1917     Br1924   1.950       .  S
C1918      C1919   1.406       .  A
C1918     Br1923   1.937       .  S
C1919      C1920   1.416       .  A
C1920     Br1921   1.926       .  S
C1925      C1926   1.411       .  A
C1925      C1930   1.405       .  A
C1925     Br1932   1.929       .  S
C1926      C1927   1.411       .  A
C1927      C1928   1.405       .  A
C1927     Br1934   1.927       .  S
C1928      C1929   1.406       .  A
C1928     Br1933   1.920       .  S
C1929      C1930   1.415       .  A
C1930     Br1931   1.932       .  S
C1935      C1936   1.405       .  A
C1937      C1938   1.409       .  A
C1938      C1939   1.419       .  A
C1938     Br1943   1.931       .  S
C1939      C1940   1.422       .  A
C1940     Br1941   1.937       .  S
C1945      C1950   1.409       .  A
C1946      C1947   1.408       .  A
C1947      C1948   1.402       .  A
C1947     Br1954   1.933       .  S
C1948     Br1953   1.933       .  S
C1949      C1950   1.407       .  A
C1950     Br1951   1.929       .  S
C1955      C1956   1.410       .  A
C1955      C1960   1.412       .  A
C1955     Br1962   1.927       .  S
C1957     Br1964   1.934       .  S
C1958      C1959   1.413       .  A
C1959      C1960   1.409       .  A
C1960     Br1961   1.926       .  S
C1965      C1966   1.412       .  A
C1966      C1967   1.407       .  A
C1967      C1968   1.404       .  A
C1967     Br1974   1.936       .  S
C1968      C1969   1.433       .  A
C1970     Br1971   1.932       .  S
C1975      C1976   1.430       .  A
C1975      C1980   1.416       .  A
C1977     Br1984   1.943       .  S
C1978      C1979   1.401       .  A
C1979      C1980   1.404       .  A
C1980     Br1981   1.932       .  S
C1985      C1986   1.411       .  A
C1985      C1990   1.397       .  A
C1985     Br1992   1.936       .  S
C1986      C1987   1.415       .  A
C1987      C1988   1.413       .  A
C1987     Br1994   1.922       .  S
C1988      C1989   1.408       .  A
C1988     Br1993   1.928       .  S
C1989      C1990   1.410       .  A
C1990     Br1991   1.935       .  S
C1995      C1996   1.403       .  A
C1995      C2000   1.395       .  A
C1995     Br2002   1.938       .  S
C1996      C1997   1.432       .  A
C1997      C1998   1.422       .  A
C1997     Br2004   1.934       .  S
C1998      C1999   1.417       .  A
C1998     Br2003   1.928       .  S
C1999      C2000   1.419       .  A
C2000     Br2001   1.914       .  S
C2005      C2006   1.412       .  A
C2005      C2010   1.416       .  A
C2005     Br2012   1.926       .  S
C2007      C2008   1.406       .  A
C2007     Br2014   1.925       .  S
C2008      C2009   1.409       .  A
C2008     Br2013   1.934       .  S
C2010     Br2011   1.926       .  S
C2015      C2016   1.409       .  A
C2015      C2020   1.401       .  A
C2015     Br2022   1.937       .  S
C2016      C2017   1.410       .  A
C2017      C2018   1.415       .  A
C2017     Br2024   1.931       .  S
C2018      C2019   1.418       .  A
C2018     Br2023   1.925       .  S
C2019      C2020   1.417       .  A
C2020     Br2021   1.932       .  S
C2025      C2026   1.411       .  A
C2025      C2030   1.415       .  A
C2025     Br2032   1.926       .  S
C2026      C2027   1.409       .  A
C2027      C2028   1.400       .  A
C2027     Br2034   1.930       .  S
C2028      C2029   1.410       .  A
C2028     Br2033   1.929       .  S
C2029      C2030   1.411       .  A
C2030     Br2031   1.927       .  S
C2035      C2036   1.420       .  A
C2035      C2040   1.390       .  A
C2035     Br2042   1.936       .  S
C2036      C2037   1.420       .  A
C2038     Br2043   1.926       .  S
C2039      C2040   1.401       .  A
C2040     Br2041   1.926       .  S
C2045      C2046   1.408       .  A
C2045      C2050   1.413       .  A
C2045     Br2052   1.923       .  S
C2046      C2047   1.411       .  A
C2047      C2048   1.403       .  A
C2048      C2049   1.420       .  A
C2048     Br2053   1.933       .  S
C2049      C2050   1.418       .  A
C2050     Br2051   1.928       .  S
C2055      C2056   1.416       .  A
C2055      C2060   1.409       .  A
C2055     Br2062   1.916       .  S
C2056      C2057   1.413       .  A
C2057      C2058   1.415       .  A
C2057     Br2064   1.931       .  S
C2058      C2059   1.416       .  A
C2058     Br2063   1.924       .  S
C2059      C2060   1.409       .  A
C2060     Br2061   1.932       .  S
