geometry optimzed in LAMMPS
_audit_creation_date              2020-11-30 
_audit_creation_method            'lammps2cif' 
_symmetry_space_group_name_H-M    'P1' 
_symmetry_Int_Tables_number       1 
_symmetry_cell_setting            triclinic 
loop_ 
_symmetry_equiv_pos_as_xyz 
  x,y,z 
_cell_length_a                    30.495909835179287 
_cell_length_b                    27.355503650540864 
_cell_length_c                    55.727196542869166 
_cell_angle_alpha                 90.82160436888546 
_cell_angle_beta                  90.47182399700853 
_cell_angle_gamma                 90.12874782620916 
loop_ 
_atom_site_label 
_atom_site_type_symbol 
_atom_site_fract_x 
_atom_site_fract_y 
_atom_site_fract_z 
_atom_site_charge 
O1          O  0.89950417  0.43442534  0.80280355    -0.75440
O2          O  0.94225417  0.37347269  0.78730928    -0.54350
C3          C  0.90811194  0.38937256  0.79860810     0.78280
O4          O  0.90658234  0.58826280  0.71154480    -0.60050
O5          O  0.94052424  0.65047770  0.73198442    -0.53070
C6          C  0.91358413  0.63389677  0.71580598     0.70300
O7          O  0.91157725  0.42604790  0.71471503    -0.74600
O8          O  0.95016505  0.36985680  0.73619493    -0.55170
C9          C  0.92196617  0.38197807  0.71994274     0.76300
O10         O  0.90441787  0.59476933  0.80816299    -0.59750
O11         O  0.93648803  0.65461858  0.78602911    -0.52870
C12         C  0.90950764  0.63934579  0.80200877     0.72890
Zr13       Zr  0.92940002  0.51438759  0.79704331     2.54710
O14         O  0.84991345  0.51689393  0.80044871    -0.80310
O15         O  0.93838288  0.51019877  0.84042158    -0.93730
Zr16       Zr  0.92927747  0.50919105  0.72653749     2.64680
O17         O  0.85021516  0.50215674  0.73117426    -0.98690
O18         O  0.92643656  0.50864349  0.68292193    -0.80750
O19         O  0.93069460  0.46406441  0.76230130    -0.84100
O20         O  0.92588236  0.55971168  0.76115822    -2.18810
O21         O  0.05847222  0.60240273  0.81571012    -0.67490
O22         O  0.04102977  0.65649721  0.78667769    -0.52060
C23         C  0.06191932  0.64427242  0.80591471     0.71280
O24         O  0.08264820  0.43335138  0.71581583    -0.60400
O25         O  0.04736140  0.37459901  0.73713520    -0.52380
C26         C  0.07528063  0.38855873  0.72138026     0.73080
O27         O  0.07713529  0.59737559  0.71404695    -0.71800
O28         O  0.03645012  0.65517130  0.73359064    -0.50470
C29         C  0.06629852  0.64202756  0.71856570     0.74460
O30         O  0.08750801  0.44397913  0.80715542    -0.67130
O31         O  0.05328077  0.37930707  0.78889982    -0.54320
C32         C  0.08396791  0.39830418  0.80226733     0.72840
Zr33       Zr  0.05610284  0.52177321  0.79764011     2.77540
O34         O  0.13307251  0.54468368  0.79402402    -0.97880
O35         O  0.06448496  0.51305152  0.84082099    -0.78700
Zr36       Zr  0.05781294  0.51515109  0.72697012     2.70070
O37         O  0.13757829  0.51696089  0.72875198    -0.79940
O38         O  0.05450165  0.51110187  0.68331479    -0.99030
Zr39       Zr  0.99690674  0.41807437  0.76351107     2.21500
Zr40       Zr  0.98921280  0.61103097  0.76080892     2.11130
O41         O  0.05636630  0.56634107  0.76160811    -2.47710
O42         O  0.05957176  0.47059562  0.76309156    -0.79740
O43         O  0.99045967  0.56699158  0.79740108    -0.71930
O44         O  0.99530525  0.46368510  0.72699239    -2.32890
O45         O  0.99485400  0.46836540  0.79906892    -2.29100
O46         O  0.99174574  0.56028206  0.72563610    -0.73690
H47         H  0.89930971  0.57883567  0.76069172     0.78310
H48         H  0.99613129  0.44223040  0.71308673     0.79390
H49         H  0.08111729  0.58839797  0.76148974     0.81620
H50         H  0.99570166  0.44869391  0.81332447     0.79230
H51         H  0.95755691  0.50817591  0.67801689     0.42260
H52         H  0.03808723  0.54068919  0.67860328     0.41230
H53         H  0.14582758  0.48813253  0.73832351     0.40910
H54         H  0.14088413  0.53612593  0.77729158     0.38840
H55         H  0.03434118  0.51632988  0.84709951     0.41970
H56         H  0.93711488  0.47489206  0.84403048     0.36760
H57         H  0.83896924  0.50809520  0.78417132     0.42870
H58         H  0.84027811  0.53539135  0.73576063     0.39290
H59         H  0.13407337  0.58082936  0.79469628     0.44210
H60         H  0.91068161  0.52358264  0.84689350     0.42930
H61         H  0.83878499  0.49676178  0.71466906     0.43070
H62         H  0.08498393  0.51744719  0.67820184     0.43430
C63         C  0.68801980  0.31540560  0.86200659     0.02980
C64         C  0.73010767  0.33185072  0.85525517    -0.13170
C65         C  0.75824424  0.30149078  0.84172143     0.00480
C66         C  0.74450010  0.25455064  0.83504395    -0.11700
C67         C  0.70186258  0.23883963  0.83986431     0.02970
C68         C  0.67466956  0.26819172  0.85443663    -0.11120
H69         H  0.74042462  0.36881607  0.85972821     0.08560
H70         H  0.76581815  0.23177337  0.82416940     0.06090
H71         H  0.64257161  0.25472038  0.85923231     0.05940
O72         O  0.56712151  0.09550369  0.79655423    -0.75440
O73         O  0.61958849  0.05799775  0.77392408    -0.54350
C74         C  0.60711822  0.08702126  0.79092478     0.78280
O75         O  0.42203528  0.90953388  0.79371206    -0.60050
O76         O  0.36985412  0.94802043  0.77137358    -0.53070
C77         C  0.38215798  0.91860160  0.78793626     0.70300
O78         O  0.56688635  0.90541029  0.79170139    -0.74600
O79         O  0.62020142  0.94875887  0.77283998    -0.55170
C80         C  0.60698403  0.91523508  0.78709576     0.76300
O81         O  0.42171015  0.10481898  0.78915790    -0.59750
O82         O  0.36923881  0.05818699  0.77036322    -0.52870
C83         C  0.38175709  0.09374697  0.78415680     0.72890
Zr84       Zr  0.49473753  0.07576092  0.78121769     2.54710
O85         O  0.48739689  0.07674417  0.82466972    -0.80310
O86         O  0.49951157  0.16464019  0.78018815    -0.93730
Zr87       Zr  0.49449424  0.93140899  0.78066154     2.64680
O88         O  0.49983379  0.93254165  0.82427011    -0.98690
O89         O  0.49037083  0.84254941  0.77965881    -0.80750
O90         O  0.53721104  0.00365229  0.78247424    -0.84100
O91         O  0.45208429  0.00355276  0.78186013    -2.18810
O92         O  0.42018437  0.09978211  0.69866011    -0.67490
O93         O  0.37052881  0.05449648  0.71906543    -0.52060
C94         C  0.38054774  0.08752137  0.70386526     0.71280
O95         O  0.57154765  0.90936716  0.69680147    -0.60400
O96         O  0.62012257  0.95134142  0.72044278    -0.52380
C97         C  0.61108010  0.92117954  0.70334950     0.73080
O98         O  0.42093829  0.90556479  0.69624274    -0.71800
O99         O  0.37122952  0.94966523  0.71805825    -0.50470
C100        C  0.38139011  0.91832875  0.70168741     0.74460
O101        O  0.56854123  0.10010391  0.69909066    -0.67130
O102        O  0.61914894  0.05638605  0.72026265    -0.54320
C103        C  0.60818843  0.08865550  0.70476119     0.72840
Zr104      Zr  0.49473359  0.07443318  0.71001398     2.77540
O105        O  0.49654667  0.06629566  0.66646659    -0.97880
O106        O  0.49353539  0.16333435  0.70939886    -0.78700
Zr107      Zr  0.49582620  0.92917430  0.70932717     2.70070
O108        O  0.49534713  0.92947140  0.66565451    -0.79940
O109        O  0.49850241  0.84034567  0.71089915    -0.99030
Zr110      Zr  0.57905062  0.00352638  0.74680471     2.21500
Zr111      Zr  0.41116284  0.00192087  0.74542765     2.11130
O112        O  0.45280711  0.00148560  0.70927548    -2.47710
O113        O  0.53795598  0.00237420  0.71013037    -0.79740
O114        O  0.45241930  0.07571542  0.74545627    -0.71930
O115        O  0.53748179  0.92953463  0.74546917    -2.32890
O116        O  0.53728263  0.07695069  0.74599325    -2.29100
O117        O  0.45256073  0.92825485  0.74473096    -0.73690
H118        H  0.43317078  0.00423467  0.79568056     0.78310
H119        H  0.55639800  0.90126742  0.74541130     0.79390
H120        H  0.43386239  0.00140045  0.69530397     0.81620
H121        H  0.55614963  0.10536642  0.74629865     0.79230
H122        H  0.49492058  0.83347980  0.76260812     0.42260
H123        H  0.47084116  0.83090321  0.71878669     0.41230
H124        H  0.51203719  0.95921278  0.66149009     0.40910
H125        H  0.46753971  0.05263128  0.66186577     0.38840
H126        H  0.48963731  0.17326424  0.72640011     0.41970
H127        H  0.52850142  0.17180248  0.77316578     0.36760
H128        H  0.50502768  0.04855220  0.83006209     0.42870
H129        H  0.47919841  0.95838860  0.82947742     0.39290
H130        H  0.49595796  0.10034094  0.66068321     0.44210
H131        H  0.50242451  0.17491541  0.79723578     0.42930
H132        H  0.48592841  0.90159028  0.82924107     0.43070
H133        H  0.49464789  0.82940850  0.69399773     0.43430
C134        C  0.22237816  0.72236895  0.84471795     0.02980
C135        C  0.24071054  0.76544552  0.83586024    -0.13170
C136        C  0.28538665  0.77501896  0.83823859     0.00480
C137        C  0.31174870  0.74382873  0.85184854    -0.11700
C138        C  0.29410350  0.70176898  0.86241658     0.02970
C139        C  0.24922728  0.69069226  0.85835582    -0.11120
H140        H  0.22053518  0.79053301  0.82572202     0.08560
H141        H  0.34643236  0.75185347  0.85381461     0.06090
H142        H  0.23554763  0.65743315  0.86544521     0.05940
C143        C  0.75822517  0.72183537  0.84508737     0.04000
C144        C  0.74243548  0.76835996  0.83997449    -0.13170
C145        C  0.69958932  0.78100180  0.84563140     0.00480
C146        C  0.67396510  0.74935025  0.85938733    -0.11700
C147        C  0.69008022  0.70333024  0.86627856     0.02970
C148        C  0.73218303  0.68932334  0.85830279    -0.11120
H149        H  0.76168767  0.79253368  0.82892092     0.08560
H150        H  0.64061648  0.75977188  0.86358500     0.06090
H151        H  0.74392003  0.65259048  0.86134645     0.05940
C152        C  0.22455901  0.28749120  0.84623628     0.02980
C153        C  0.24144961  0.24578607  0.83486181    -0.13170
C154        C  0.28404371  0.23010760  0.84004746     0.00480
C155        C  0.30989053  0.25557955  0.85710955    -0.11700
C156        C  0.29364030  0.29745755  0.86881027     0.02970
C157        C  0.25059571  0.31243470  0.86356071    -0.11120
H158        H  0.22351513  0.22869369  0.82010085     0.08560
H159        H  0.34355314  0.24445160  0.86013566     0.06090
H160        H  0.23867633  0.34639708  0.87130426     0.05940
C161        C  0.22978582  0.18406371  0.66201338     0.02980
C162        C  0.21035009  0.22364610  0.67421888    -0.13170
C163        C  0.17016165  0.24283628  0.66628333     0.00480
C164        C  0.14966389  0.22195960  0.64598767    -0.11700
C165        C  0.16944446  0.18349833  0.63333599     0.02970
C166        C  0.20958000  0.16460521  0.64128825    -0.11120
H167        H  0.22585885  0.23841874  0.69033144     0.08560
H168        H  0.11754848  0.23459648  0.64040219     0.06090
H169        H  0.22389541  0.13340308  0.63208243     0.05940
C170        C  0.15748208  0.84980785  0.63237597     0.02980
C171        C  0.13511635  0.81536632  0.64609444    -0.13170
C172        C  0.15466088  0.79587388  0.66671231     0.00480
C173        C  0.19714769  0.81127475  0.67342391    -0.11700
C174        C  0.21996879  0.84567667  0.65971043     0.02970
C175        C  0.20031382  0.86353804  0.63873096    -0.11120
H176        H  0.10254445  0.80363393  0.64058887     0.08560
H177        H  0.21207994  0.79718554  0.68962164     0.06090
H178        H  0.21771217  0.88948606  0.62777326     0.05940
C179        C  0.75577953  0.18408741  0.66125495     0.02980
C180        C  0.77725790  0.22072338  0.67490855    -0.13170
C181        C  0.81657198  0.24124371  0.66683776     0.00480
C182        C  0.83252688  0.22699940  0.64433902    -0.11700
C183        C  0.81151032  0.19080809  0.63042825     0.02970
C184        C  0.77279912  0.16975490  0.63889528    -0.11120
H185        H  0.76404421  0.23212688  0.69207434     0.08560
H186        H  0.86293854  0.24264463  0.63803196     0.06090
H187        H  0.75698361  0.14063934  0.62867825     0.05940
C188        C  0.81601037  0.83188387  0.62476514     0.02980
C189        C  0.83719186  0.79362297  0.63686360    -0.13170
C190        C  0.82015984  0.77531467  0.65820167     0.00480
C191        C  0.78007108  0.79298974  0.66675112    -0.11700
C192        C  0.75823826  0.83058760  0.65478558     0.02970
C193        C  0.77673230  0.85069974  0.63416303    -0.11120
H194        H  0.86787183  0.77912320  0.63017593     0.08560
H195        H  0.76696118  0.77921810  0.68337716     0.06090
H196        H  0.76150261  0.88233142  0.62615328     0.05940
O197        O  0.58288896  0.59890222  0.94784654    -0.75440
O198        O  0.54169986  0.56051505  0.91876207    -0.54350
C199        C  0.57350074  0.58889323  0.92580436     0.78280
O200        O  0.57688788  0.41405200  0.02924172    -0.60050
O201        O  0.54171333  0.46034324  0.05753499    -0.53070
C202        C  0.56897054  0.42674466  0.05114580     0.70300
O203        O  0.58427962  0.41971190  0.94874008    -0.74600
O204        O  0.54268592  0.45462901  0.91932907    -0.55170
C205        C  0.57513060  0.42794549  0.92655343     0.76300
O206        O  0.58114196  0.60952548  0.02721949    -0.59750
O207        O  0.54364730  0.56984253  0.05641453    -0.52870
C208        C  0.57268838  0.60072732  0.04932299     0.72890
Zr209      Zr  0.55582790  0.58282369  0.98765931     2.54710
O210        O  0.63563468  0.58398538  0.98856530    -0.80310
O211        O  0.54962550  0.67144272  0.98577932    -0.93730
Zr212      Zr  0.55628218  0.43878015  0.98869524     2.64680
O213        O  0.63604797  0.43875132  0.99120936    -0.98690
O214        O  0.55065223  0.34995197  0.98685542    -0.80750
O215        O  0.55535871  0.50944797  0.96463608    -0.84100
O216        O  0.55767004  0.51228448  0.01173415    -2.18810
O217        O  0.40683838  0.61174140  0.02867511    -0.67490
O218        O  0.44512969  0.57110139  0.05738050    -0.52060
C219        C  0.41647765  0.60298933  0.05079471     0.71280
O220        O  0.40104009  0.41437545  0.95029579    -0.60400
O221        O  0.43840199  0.45074006  0.92008697    -0.52380
C222        C  0.40860483  0.42130958  0.92797999     0.73080
O223        O  0.40959637  0.41187846  0.02951462    -0.71800
O224        O  0.44429991  0.45993766  0.05768108    -0.50470
C225        C  0.41799037  0.42492526  0.05133459     0.74460
O226        O  0.40205823  0.60433507  0.94838348    -0.67130
O227        O  0.43778955  0.56093728  0.91913476    -0.54320
C228        C  0.40949308  0.59314379  0.92627992     0.72840
Zr229      Zr  0.42724929  0.58306858  0.98841175     2.77540
O230        O  0.34741230  0.58135935  0.98879047    -0.97880
O231        O  0.43210146  0.67184833  0.98784362    -0.78700
Zr232      Zr  0.42806272  0.43878812  0.98942596     2.70070
O233        O  0.34842092  0.43980693  0.99188717    -0.79940
O234        O  0.43315437  0.35010073  0.98674402    -0.99030
Zr235      Zr  0.49002985  0.50788470  0.94058330     2.21500
Zr236      Zr  0.49284945  0.51420355  0.03555038     2.11130
O237        O  0.42672068  0.51229090  0.01241200    -2.47710
O238        O  0.42623960  0.50944673  0.96530089    -0.79740
O239        O  0.49236642  0.58590239  0.01177699    -0.71930
O240        O  0.49132473  0.43628214  0.96494257    -2.32890
O241        O  0.49078153  0.58240346  0.96393656    -2.29100
O242        O  0.49284152  0.43949595  0.01289938    -0.73690
H243        H  0.58361643  0.51289463  0.02178827     0.78310
H244        H  0.49103500  0.40709502  0.95497732     0.79390
H245        H  0.40136718  0.51255227  0.02268919     0.81620
H246        H  0.49062396  0.61039193  0.95356151     0.79230
H247        H  0.54208426  0.34205463  0.97006876     0.42260
H248        H  0.45585013  0.34142616  0.99873909     0.41230
H249        H  0.33952096  0.46872530  0.98255359     0.40910
H250        H  0.33976161  0.56274431  0.00328066     0.38840
H251        H  0.45654907  0.68006585  0.99899549     0.41970
H252        H  0.53891758  0.67804178  0.96932572     0.36760
H253        H  0.64417876  0.55079043  0.98307177     0.42870
H254        H  0.64342558  0.45897176  0.00556014     0.39290
H255        H  0.33884039  0.61544935  0.99265468     0.44210
H256        H  0.58034431  0.68325434  0.98595540     0.42930
H257        H  0.64383255  0.40497748  0.99574609     0.43070
H258        H  0.40528202  0.33811491  0.99352082     0.43430
C259        C  0.30761384  0.71113707  0.11886906     0.02980
C260        C  0.31855884  0.75680247  0.12934689    -0.13170
C261        C  0.29126167  0.77831757  0.14682873     0.00480
C262        C  0.25272874  0.75460044  0.15343824    -0.11700
C263        C  0.24211445  0.70853377  0.14385457     0.02970
C264        C  0.26927940  0.68713323  0.12634616    -0.11120
H265        H  0.34946914  0.77405540  0.12502579     0.08560
H266        H  0.23309705  0.76993947  0.16783048     0.06090
H267        H  0.26145443  0.65106152  0.11921715     0.05940
C268        C  0.73440862  0.32456345  0.14952043     0.02980
C269        C  0.71002279  0.34506209  0.13077929    -0.13170
C270        C  0.67093853  0.32279554  0.12257206     0.00480
C271        C  0.65691693  0.27930777  0.13343262    -0.11700
C272        C  0.68223829  0.25793553  0.15167200     0.02970
C273        C  0.72112413  0.28036431  0.15937058    -0.11120
H274        H  0.72069068  0.37936268  0.12324282     0.08560
H275        H  0.62538242  0.26350236  0.12864516     0.06090
H276        H  0.73927657  0.26533536  0.17436406     0.05940
C277        C  0.73399768  0.70346797  0.15141082     0.02980
C278        C  0.71502648  0.68406871  0.13018919    -0.13170
C279        C  0.67953920  0.70738992  0.11916480     0.00480
C280        C  0.66551355  0.75259092  0.12837436    -0.11700
C281        C  0.68113935  0.77039984  0.15070685     0.02970
C282        C  0.71501970  0.74495819  0.16220306    -0.11120
H283        H  0.72684972  0.64997822  0.12258582     0.08560
H284        H  0.64044355  0.77231046  0.11868620     0.06090
H285        H  0.72587103  0.75662839  0.17992406     0.05940
O286        O  0.40944788  0.92084105  0.19921202    -0.75440
O287        O  0.35602564  0.96554416  0.21751998    -0.54350
C288        C  0.36939468  0.93001920  0.20389622     0.78280
O289        O  0.55532274  0.92223572  0.29168296    -0.60050
O290        O  0.60715898  0.96297853  0.27044986    -0.53070
C291        C  0.59543610  0.93165866  0.28626755     0.70300
O292        O  0.40734622  0.92556514  0.28990540    -0.74600
O293        O  0.35668636  0.96891914  0.26855019    -0.55170
C294        C  0.36766768  0.93642459  0.28385428     0.76300
O295        O  0.55188467  0.92593452  0.19693574    -0.59750
O296        O  0.60908857  0.95973526  0.21707119    -0.52870
C297        C  0.59281858  0.92940428  0.20139563     0.72890
Zr298      Zr  0.48081407  0.95140312  0.20829172     2.54710
O299        O  0.48221140  0.86247566  0.20606027    -0.80310
O300        O  0.47787488  0.95618888  0.16471533    -0.93730
Zr301      Zr  0.48210736  0.94854078  0.27900238     2.64680
O302        O  0.47724258  0.85991086  0.27536713    -0.98690
O303        O  0.48224221  0.95001897  0.32271080    -0.80750
O304        O  0.43885866  0.94988911  0.24354102    -0.84100
O305        O  0.52423327  0.94671432  0.24343386    -2.18810
O306        O  0.55649647  0.11901705  0.19897771    -0.67490
O307        O  0.60966339  0.07385968  0.21740751    -0.52060
C308        C  0.59651929  0.10848636  0.20360924     0.71280
O309        O  0.41292017  0.11915164  0.29254919    -0.60400
O310        O  0.36007386  0.07727673  0.27137384    -0.52380
C311        C  0.37262990  0.10866214  0.28743379     0.73080
O312        O  0.56094678  0.11614058  0.29144340    -0.71800
O313        O  0.61095457  0.07225638  0.26974322    -0.50470
C314        C  0.60050769  0.10530054  0.28532564     0.74460
O315        O  0.41219252  0.12132341  0.19835890    -0.67130
O316        O  0.35814498  0.08102617  0.21828954    -0.54320
C317        C  0.37196112  0.11297569  0.20334080     0.72840
Zr318      Zr  0.48405678  0.09347325  0.20971199     2.77540
O319        O  0.48427665  0.18247540  0.21210622    -0.97880
O320        O  0.48405835  0.09157723  0.16604254    -0.78700
Zr321      Zr  0.48596167  0.09202137  0.28045770     2.70070
O322        O  0.48791937  0.18099155  0.28146777    -0.79940
O323        O  0.48700436  0.08485251  0.32395380    -0.99030
Zr324      Zr  0.39754838  0.02334899  0.24353583     2.21500
Zr325      Zr  0.56948378  0.01793155  0.24334061     2.11130
O326        O  0.52782827  0.09194254  0.24487531    -2.47710
O327        O  0.44204150  0.09512353  0.24513274    -0.79740
O328        O  0.52624740  0.02104795  0.20759880    -0.71930
O329        O  0.44058937  0.02158918  0.27977366    -2.32890
O330        O  0.43881025  0.02339648  0.20757909    -2.29100
O331        O  0.52772563  0.01897089  0.27963753    -0.73690
H332        H  0.54169256  0.91729936  0.24307016     0.78310
H333        H  0.42199986  0.02189880  0.29372348     0.79390
H334        H  0.54684265  0.12021994  0.24518420     0.81620
H335        H  0.42000491  0.02377902  0.19354966     0.79230
H336        H  0.46098467  0.97583895  0.32715557     0.42260
H337        H  0.51246700  0.06360529  0.32739974     0.41230
H338        H  0.46983859  0.19075843  0.26750528     0.40910
H339        H  0.50926802  0.19099513  0.22283688     0.38840
H340        H  0.49922248  0.06074733  0.16174964     0.41970
H341        H  0.44799951  0.96806624  0.16093943     0.36760
H342        H  0.47017320  0.85194131  0.22160892     0.42870
H343        H  0.50551614  0.84957612  0.26835267     0.39290
H344        H  0.49362636  0.19303605  0.19601264     0.44210
H345        H  0.47783197  0.92166468  0.15912225     0.42930
H346        H  0.47824276  0.84830839  0.29210630     0.43070
H347        H  0.49605820  0.11764129  0.32993251     0.43430
O348        O  0.06275874  0.61856828  0.19039858    -0.75440
O349        O  0.11663150  0.57813353  0.21043647    -0.54350
C350        C  0.10344686  0.60992337  0.19516835     0.78280
O351        O  0.92208116  0.61034235  0.28788154    -0.60050
O352        O  0.86813368  0.57140168  0.26631481    -0.53070
C353        C  0.88165780  0.60201330  0.28257784     0.70300
O354        O  0.06727180  0.60886638  0.28442684    -0.74600
O355        O  0.12258523  0.57102919  0.26462261    -0.55170
C356        C  0.10801621  0.60043147  0.28104553     0.76300
O357        O  0.91521268  0.61385921  0.19266535    -0.59750
O358        O  0.86562451  0.56695608  0.21275973    -0.52870
C359        C  0.87592343  0.60043435  0.19774096     0.72890
Zr360      Zr  0.98992060  0.59100601  0.20316455     2.54710
O361        O  0.98757470  0.67978079  0.20649814    -0.80310
O362        O  0.98639884  0.58949776  0.15948308    -0.93730
Zr363      Zr  0.99394823  0.58739695  0.27334702     2.64680
O364        O  0.99487336  0.67634802  0.27192139    -0.98690
O365        O  0.99681824  0.58891468  0.31700829    -0.80750
O366        O  0.03556057  0.59184313  0.23774385    -0.84100
O367        O  0.94858859  0.58901702  0.23906148    -2.18810
O368        O  0.91629582  0.41916985  0.19059602    -0.67490
O369        O  0.86626057  0.45721148  0.21453019    -0.52060
C370        C  0.87685270  0.42634051  0.19787937     0.71280
O371        O  0.06836463  0.40899704  0.25912318    -0.60400
O372        O  0.12078875  0.46498385  0.26206415    -0.52380
C373        C  0.10493938  0.42348223  0.26800987     0.73080
O374        O  0.92768946  0.42092820  0.28454335    -0.71800
O375        O  0.87014118  0.46252927  0.26916262    -0.50470
C376        C  0.88682993  0.43064021  0.28349061     0.74460
O377        O  0.06188429  0.42414494  0.18607433    -0.67130
O378        O  0.11578715  0.46632092  0.20645699    -0.54320
C379        C  0.10219042  0.43505607  0.19042254     0.72840
Zr380      Zr  0.99030323  0.44721765  0.20071262     2.77540
O381        O  0.99738032  0.35886217  0.20365557    -0.97880
O382        O  0.98432026  0.44924401  0.15716671    -0.78700
Zr383      Zr  0.99874611  0.44388526  0.27057429     2.70070
O384        O  0.98932064  0.35698824  0.27784845    -0.79940
O385        O  0.02547270  0.44943533  0.31185840    -0.99030
Zr386      Zr  0.08009616  0.52003886  0.23585229     2.21500
Zr387      Zr  0.90702506  0.51484892  0.23969495     2.11130
O388        O  0.95092143  0.44295095  0.23705050    -2.47710
O389        O  0.03769391  0.44650010  0.23434566    -0.79740
O390        O  0.94671712  0.51844151  0.20282480    -0.71930
O391        O  0.03933246  0.51721437  0.27243529    -2.32890
O392        O  0.03350653  0.51981279  0.20088081    -2.29100
O393        O  0.95349431  0.51388254  0.27414718    -0.73690
H394        H  0.92965532  0.61724159  0.23983700     0.78310
H395        H  0.05874812  0.51663498  0.28619814     0.79390
H396        H  0.93314154  0.41369968  0.23728614     0.81620
H397        H  0.05082313  0.52079199  0.18646206     0.79230
H398        H  0.01513220  0.56044933  0.32127902     0.42260
H399        H  0.00078336  0.46368567  0.32099095     0.41230
H400        H  0.98850365  0.34175565  0.26162574     0.40910
H401        H  0.96984761  0.34774670  0.21113851     0.38840
H402        H  0.96723090  0.47918412  0.15389023     0.41970
H403        H  0.01253669  0.57075551  0.15439055     0.36760
H404        H  0.00990874  0.68815326  0.21889094     0.42870
H405        H  0.96632708  0.68535784  0.26466286     0.39290
H406        H  0.99570032  0.34662816  0.18687201     0.44210
H407        H  0.99279152  0.62357088  0.15484583     0.42930
H408        H  0.99267227  0.68708009  0.28891255     0.43070
H409        H  0.02755473  0.41524306  0.31729115     0.43430
C410        C  0.30750776  0.32820551  0.12035517     0.02980
C411        C  0.32115094  0.28690924  0.13317990    -0.13170
C412        C  0.29385484  0.26641416  0.15060095     0.00480
C413        C  0.25296613  0.28729380  0.15514461    -0.11700
C414        C  0.23825840  0.32765861  0.14221967     0.02970
C415        C  0.26510516  0.34666664  0.12416900    -0.11120
H416        H  0.35362152  0.27197550  0.13037727     0.08560
H417        H  0.23353017  0.27324078  0.16968016     0.06090
H418        H  0.25378935  0.37748402  0.11383653     0.05940
C419        C  0.17433677  0.21990197  0.36329880     0.02980
C420        C  0.21206691  0.19691369  0.35462217    -0.13170
C421        C  0.23487532  0.21635257  0.33514374     0.00480
C422        C  0.21865243  0.25841270  0.32403085    -0.11700
C423        C  0.18131285  0.28242171  0.33282731     0.02970
C424        C  0.16066166  0.26415061  0.35335840    -0.11120
H425        H  0.22267127  0.16286769  0.36249113     0.08560
H426        H  0.23367917  0.27080948  0.30764179     0.06090
H427        H  0.13215809  0.28243009  0.36064535     0.05940
C428        C  0.74047392  0.21327889  0.33235634     0.02980
C429        C  0.75508372  0.25869528  0.32393816    -0.13170
C430        C  0.78945056  0.28417468  0.33571535     0.00480
C431        C  0.80918511  0.26178242  0.35588439    -0.11700
C432        C  0.79966544  0.21327737  0.36167631     0.02970
C433        C  0.76397818  0.19000441  0.35055250    -0.11120
H434        H  0.74062532  0.27256000  0.30766728     0.08560
H435        H  0.83426466  0.28043820  0.36637251     0.06090
H436        H  0.75551092  0.15291046  0.35535404     0.05940
C437        C  0.17421982  0.82758345  0.36114728     0.02980
C438        C  0.17057562  0.77720665  0.35669910    -0.13170
C439        C  0.18856714  0.75597984  0.33573827     0.00480
C440        C  0.21938030  0.78430430  0.32317755    -0.11700
C441        C  0.22956692  0.83221484  0.33069833     0.02970
C442        C  0.20470368  0.85475540  0.34853876    -0.11120
H443        H  0.15256735  0.75569747  0.36929584     0.08560
H444        H  0.23552450  0.77019725  0.30737483     0.06090
H445        H  0.20938609  0.89324349  0.35277133     0.05940
C446        C  0.74123133  0.83047322  0.33126418     0.02980
C447        C  0.75153651  0.78351098  0.32244824    -0.13170
C448        C  0.79247821  0.76223053  0.32757203     0.00480
C449        C  0.82146473  0.78742250  0.34331596    -0.11700
C450        C  0.80945230  0.83179047  0.35438926     0.02970
C451        C  0.76922466  0.85305925  0.34817669    -0.11120
H452        H  0.72822488  0.76458495  0.31090803     0.08560
H453        H  0.85385536  0.77284081  0.34679254     0.06090
H454        H  0.76014447  0.88805234  0.35601102     0.05940
O455        O  0.07597187  0.92821772  0.53102419    -0.75440
O456        O  0.03455359  0.96835441  0.55857179    -0.54350
C457        C  0.06568580  0.93881960  0.55276258     0.78280
O458        O  0.07594694  0.12323152  0.45459005    -0.60050
O459        O  0.04196338  0.08188770  0.42403777    -0.53070
C460        C  0.06943460  0.11434931  0.43220871     0.70300
O461        O  0.07689890  0.11010848  0.53460823    -0.74600
O462        O  0.03378116  0.06940339  0.56073397    -0.55170
C463        C  0.06588346  0.09806286  0.55601258     0.76300
O464        O  0.07297947  0.92315146  0.45160985    -0.59750
O465        O  0.04212748  0.96867249  0.42221859    -0.52870
C466        C  0.06805717  0.93447625  0.42962255     0.72890
Zr467      Zr  0.05175502  0.94998532  0.49090522     2.54710
O468        O  0.13140518  0.95569098  0.49069584    -0.80310
O469        O  0.05037057  0.86094682  0.49119339    -0.93730
Zr470      Zr  0.05311717  0.09392114  0.49331868     2.64680
O471        O  0.13279593  0.08742102  0.49424962    -0.98690
O472        O  0.05383902  0.18263432  0.49740616    -0.80750
O473        O  0.05174901  0.02090309  0.51526263    -0.84100
O474        O  0.05506347  0.02292016  0.46842459    -2.18810
O475        O  0.90528200  0.92589636  0.44616927    -0.67490
O476        O  0.94404183  0.97045659  0.41916308    -0.52060
C477        C  0.91551998  0.93761433  0.42462463     0.71280
O478        O  0.89779254  0.11724105  0.52979204    -0.60400
O479        O  0.93470995  0.07251979  0.55764081    -0.52380
C480        C  0.90654569  0.10499272  0.55149034     0.73080
O481        O  0.89932021  0.11609229  0.45020045    -0.71800
O482        O  0.94038227  0.07808664  0.42138799    -0.50470
C483        C  0.90886778  0.10650316  0.42824339     0.74460
O484        O  0.89728104  0.92319270  0.52679080    -0.67130
O485        O  0.93555127  0.96434715  0.55611353    -0.54320
C486        C  0.90703169  0.93252381  0.54895380     0.72840
Zr487      Zr  0.92257466  0.94981095  0.48744071     2.77540
O488        O  0.84286803  0.95392618  0.48523737    -0.97880
O489        O  0.92419263  0.86087237  0.48596731    -0.78700
Zr490      Zr  0.92382138  0.09453436  0.49005570     2.70070
O491        O  0.84414745  0.09598365  0.49123628    -0.79940
O492        O  0.92985496  0.18329737  0.49009055    -0.99030
Zr493      Zr  0.98468866  0.01985822  0.53620473     2.21500
Zr494      Zr  0.99132363  0.02456451  0.44317954     2.11130
O495        O  0.92431079  0.02317550  0.46533095    -2.47710
O496        O  0.92031478  0.02114321  0.51196050    -0.79740
O497        O  0.98897453  0.95066848  0.46556061    -0.71930
O498        O  0.98686365  0.09488489  0.51510981    -2.32890
O499        O  0.98560793  0.94698781  0.51249290    -2.29100
O500        O  0.99006658  0.09659008  0.46801038    -0.73690
H501        H  0.08141909  0.02305216  0.45892784     0.78310
H502        H  0.98652331  0.12267245  0.52600486     0.79390
H503        H  0.89924038  0.02322616  0.45463815     0.81620
H504        H  0.98512572  0.91828645  0.52238262     0.79230
H505        H  0.02251207  0.19197298  0.49770136     0.42260
H506        H  0.94521842  0.19084401  0.47499913     0.41230
H507        H  0.83572187  0.06223957  0.49548162     0.40910
H508        H  0.83642851  0.97346817  0.47081774     0.38840
H509        H  0.95220399  0.85284354  0.47797919     0.41970
H510        H  0.03263503  0.85242194  0.50533727     0.36760
H511        H  0.13847936  0.98179123  0.50260587     0.42870
H512        H  0.14148785  0.08034388  0.47748309     0.39290
H513        H  0.83356594  0.92029370  0.48075202     0.44210
H514        H  0.08064368  0.85143795  0.49561255     0.42930
H515        H  0.14329812  0.12114211  0.49753771     0.43070
H516        H  0.89945882  0.19479170  0.48742702     0.43430
C517        C  0.84909480  0.90733348  0.36814564    -0.09310
C518        C  0.83962525  0.85753705  0.37150720     0.06890
C519        C  0.85735668  0.83413208  0.39178928    -0.03080
C520        C  0.88338729  0.86059188  0.40819879    -0.07530
C521        C  0.89214365  0.91058224  0.40511333     0.06000
C522        C  0.87479416  0.93395103  0.38473232    -0.02550
Br523      Br  0.88114129  0.00289740  0.37974319    -0.02250
H524        H  0.83557822  0.92598695  0.35275862     0.09910
H525        H  0.89595772  0.84217327  0.42390101     0.07930
Br526      Br  0.84404577  0.76747495  0.39940827    -0.02670
C527        C  0.15388086  0.84803271  0.40277748    -0.09310
C528        C  0.14534628  0.85257324  0.37838136     0.06890
C529        C  0.11094364  0.88294730  0.37064201    -0.03080
C530        C  0.08604439  0.90912994  0.38745282    -0.07530
C531        C  0.09485163  0.90564284  0.41217498     0.06000
C532        C  0.12952835  0.87408028  0.41970584    -0.02550
Br533      Br  0.14855005  0.86458686  0.45235082    -0.02250
H534        H  0.18056179  0.82486233  0.40866755     0.09910
H535        H  0.05972791  0.93223063  0.38109531     0.07930
Br536      Br  0.09648451  0.88908127  0.33725293    -0.02670
C537        C  0.80942743  0.16244891  0.39787998    -0.09310
C538        C  0.82834431  0.18568420  0.37830121     0.06890
C539        C  0.87364908  0.17915572  0.37399339    -0.03080
C540        C  0.89939097  0.15195621  0.38993721    -0.07530
C541        C  0.88064172  0.13033517  0.41008481     0.06000
C542        C  0.83484976  0.13465970  0.41351938    -0.02550
Br543      Br  0.80413253  0.10081575  0.43821257    -0.02250
H544        H  0.77448546  0.16562151  0.40091649     0.09910
H545        H  0.93423644  0.14828223  0.38675777     0.07930
Br546      Br  0.90162988  0.20375719  0.34589258    -0.02670
C547        C  0.15305266  0.20317911  0.40524898    -0.09310
C548        C  0.14651049  0.19455074  0.38077216     0.06890
C549        C  0.11463004  0.16031903  0.37317413    -0.03080
C550        C  0.08959736  0.13542604  0.39007215    -0.07530
C551        C  0.09601227  0.14332986  0.41488253     0.06000
C552        C  0.12862893  0.17809279  0.42233234    -0.02550
Br553      Br  0.14388529  0.19384811  0.45512706    -0.02250
H554        H  0.17790894  0.22919484  0.41111694     0.09910
H555        H  0.06539052  0.10923750  0.38364031     0.07930
Br556      Br  0.10502381  0.14535414  0.33981682    -0.02670
C557        C  0.12941773  0.35831628  0.17148516    -0.09310
C558        C  0.13492664  0.40864839  0.17591513     0.06890
C559        C  0.17072023  0.43275906  0.16567633    -0.03080
C560        C  0.20287337  0.40599504  0.15376670    -0.07530
C561        C  0.19928688  0.35507172  0.15077818     0.06000
C562        C  0.16076694  0.33157908  0.15868046    -0.02550
Br563      Br  0.14798927  0.26400139  0.15166437    -0.02250
H564        H  0.10077994  0.33957829  0.17819946     0.09910
H565        H  0.23139548  0.42526520  0.14741138     0.07930
Br566      Br  0.17565792  0.50228471  0.16558494    -0.02670
C567        C  0.11606705  0.64607488  0.31898555    -0.09310
C568        C  0.13690665  0.62785748  0.29831775     0.06890
C569        C  0.17973781  0.64406257  0.29375198    -0.03080
C570        C  0.19815763  0.68151102  0.30831184    -0.07530
C571        C  0.17284600  0.70728506  0.32571976     0.06000
C572        C  0.13063138  0.68798817  0.33082292    -0.02550
Br573      Br  0.08431322  0.71940453  0.34870624    -0.02250
H574        H  0.08416991  0.63208401  0.32394805     0.09910
H575        H  0.23153022  0.69216005  0.30467130     0.07930
Br576      Br  0.21312122  0.61955549  0.26718316    -0.02670
C577        C  0.83080750  0.68193607  0.33040267    -0.09310
C578        C  0.80658104  0.71479620  0.31630089     0.06890
C579        C  0.80090584  0.70355629  0.29148892    -0.03080
C580        C  0.82166709  0.66256200  0.28137594    -0.07530
C581        C  0.84954624  0.63330402  0.29513321     0.06000
C582        C  0.85291315  0.64233462  0.32002028    -0.02550
Br583      Br  0.88935419  0.60328862  0.34043862    -0.02250
H584        H  0.83462893  0.68857229  0.34951701     0.09910
H585        H  0.81943871  0.65637113  0.26214662     0.07930
Br586      Br  0.77126522  0.74532385  0.26919708    -0.02670
C587        C  0.85585344  0.33447124  0.32829351    -0.09310
C588        C  0.81055381  0.32853237  0.32485249     0.06890
C589        C  0.78875165  0.36332787  0.31021335    -0.03080
C590        C  0.81334638  0.39755045  0.29708026    -0.07530
C591        C  0.85916990  0.40079500  0.29980961     0.06000
C592        C  0.87925499  0.37140364  0.31755381    -0.02550
Br593      Br  0.93834947  0.37868304  0.32965746    -0.02250
H594        H  0.87459625  0.30973884  0.33920312     0.09910
H595        H  0.79656449  0.42158878  0.28478099     0.07930
Br596      Br  0.72610432  0.36977665  0.30888232    -0.02670
C597        C  0.18802914  0.35942054  0.30903236    -0.09310
C598        C  0.16131238  0.32229738  0.31854472     0.06890
C599        C  0.11663794  0.32081998  0.31186364    -0.03080
C600        C  0.10015751  0.35489221  0.29599484    -0.07530
C601        C  0.12660868  0.39097117  0.28571888     0.06000
C602        C  0.17116587  0.39360532  0.29272744    -0.02550
Br603      Br  0.21115962  0.44040084  0.27977056    -0.02250
H604        H  0.22250578  0.36103587  0.31382737     0.09910
H605        H  0.06593910  0.35196609  0.29124042     0.07930
Br606      Br  0.07601335  0.27077944  0.32115946    -0.02670
C607        C  0.32045193  0.18091718  0.15297125    -0.09310
C608        C  0.30853163  0.22431703  0.16489457     0.06890
C609        C  0.31114593  0.22686953  0.19021874    -0.03080
C610        C  0.32681144  0.18684614  0.20300227    -0.07530
C611        C  0.34087127  0.14456354  0.19093443     0.06000
C612        C  0.33687299  0.14134952  0.16579114    -0.02550
Br613      Br  0.35694893  0.08496489  0.14822378    -0.02250
H614        H  0.31825825  0.17838418  0.13357693     0.09910
H615        H  0.33169243  0.19038777  0.22223986     0.07930
Br616      Br  0.29948890  0.28594657  0.20809968    -0.02670
C617        C  0.66155807  0.83574139  0.32066239    -0.09310
C618        C  0.70323621  0.85753433  0.32125482     0.06890
C619        C  0.70872479  0.90374560  0.31071468    -0.03080
C620        C  0.67302169  0.92714200  0.30009886    -0.07530
C621        C  0.63121311  0.90538123  0.29914699     0.06000
C622        C  0.62573829  0.85891823  0.30974534    -0.02550
Br623      Br  0.57172431  0.82280123  0.30875117    -0.02250
H624        H  0.65700387  0.80000314  0.32841174     0.09910
H625        H  0.67840586  0.96250170  0.29210870     0.07930
Br626      Br  0.76483205  0.93532914  0.30815617    -0.02670
C627        C  0.70650886  0.17601482  0.29595203    -0.09310
C628        C  0.70365969  0.18726154  0.32045252     0.06890
C629        C  0.66657123  0.17196367  0.33331919    -0.03080
C630        C  0.63326431  0.14553443  0.32154790    -0.07530
C631        C  0.63647165  0.13330904  0.29705674     0.06000
C632        C  0.67355429  0.14919260  0.28422485    -0.02550
Br633      Br  0.68077124  0.13790182  0.25049287    -0.02250
H634        H  0.73489453  0.18765480  0.28592949     0.09910
H635        H  0.60493123  0.13404298  0.33165032     0.07930
Br636      Br  0.65918386  0.18748007  0.36675878    -0.02670
C637        C  0.34438718  0.18483374  0.30661913    -0.09310
C638        C  0.33822471  0.13510738  0.30085635     0.06890
C639        C  0.29910119  0.11185379  0.30788605    -0.03080
C640        C  0.26633659  0.13889704  0.31925698    -0.07530
C641        C  0.27182535  0.18896303  0.32431951     0.06000
C642        C  0.31174487  0.21177627  0.31830584    -0.02550
Br643      Br  0.32437121  0.27885346  0.32645675    -0.02250
H644        H  0.37455229  0.20304135  0.30174450     0.09910
H645        H  0.23607221  0.12067372  0.32393659     0.07930
Br646      Br  0.28917048  0.04282306  0.30386499    -0.02670
C647        C  0.33438256  0.90269594  0.32043897    -0.09310
C648        C  0.33200193  0.90987722  0.29559733     0.06890
C649        C  0.29553067  0.89154194  0.28252434    -0.03080
C650        C  0.26247671  0.86650003  0.29431184    -0.07530
C651        C  0.26477634  0.85959814  0.31907816     0.06000
C652        C  0.30098308  0.87802920  0.33227831    -0.02550
Br653      Br  0.30739989  0.86874047  0.36622714    -0.02250
H654        H  0.36217263  0.91662339  0.33069536     0.09910
H655        H  0.23477077  0.85224886  0.28408642     0.07930
Br656      Br  0.28963790  0.89661431  0.24845330    -0.02670
C657        C  0.77076460  0.62658373  0.16395018    -0.09310
C658        C  0.77107905  0.67793505  0.16330459     0.06890
C659        C  0.80743383  0.70341779  0.17341592    -0.03080
C660        C  0.84095313  0.67750400  0.18480743    -0.07530
C661        C  0.84000754  0.62633022  0.18559742     0.06000
C662        C  0.80540965  0.60092912  0.17422475    -0.02550
Br663      Br  0.80665604  0.53171528  0.16935887    -0.02250
H664        H  0.74380921  0.60596355  0.15606130     0.09910
H665        H  0.86825811  0.69741749  0.19282356     0.07930
Br666      Br  0.81570110  0.77280493  0.17066714    -0.02670
C667        C  0.68512510  0.84732012  0.17647784    -0.09310
C668        C  0.65995410  0.81304890  0.16289835     0.06890
C669        C  0.61412369  0.81885216  0.16224652    -0.03080
C670        C  0.59520666  0.85895729  0.17327369    -0.07530
C671        C  0.61937519  0.89265784  0.18763070     0.06000
C672        C  0.66519495  0.88608481  0.18933133    -0.02550
Br673      Br  0.70196141  0.92688626  0.20928846    -0.02250
H674        H  0.72040655  0.84341469  0.17754673     0.09910
H675        H  0.55990310  0.86129138  0.17154900     0.07930
Br676      Br  0.57292286  0.77082922  0.15014379    -0.02670
C677        C  0.66969689  0.16896292  0.15881773    -0.09310
C678        C  0.66439081  0.21799225  0.16606190     0.06890
C679        C  0.64263263  0.22902148  0.18759072    -0.03080
C680        C  0.62462981  0.19148517  0.20092917    -0.07530
C681        C  0.62791581  0.14260311  0.19323826     0.06000
C682        C  0.65141379  0.13114040  0.17230883    -0.02550
Br683      Br  0.65609947  0.06502069  0.16078764    -0.02250
H684        H  0.68701370  0.16028028  0.14241479     0.09910
H685        H  0.60565241  0.20070606  0.21672396     0.07930
Br686      Br  0.63412438  0.29514121  0.19865775    -0.02670
C687        C  0.81307670  0.33153133  0.16041506    -0.09310
C688        C  0.77093869  0.35154459  0.16096866     0.06890
C689        C  0.76325007  0.39401337  0.17477095    -0.03080
C690        C  0.79776183  0.41614635  0.18744801    -0.07530
C691        C  0.84083406  0.39811125  0.18591223     0.06000
C692        C  0.84797642  0.35422510  0.17264116    -0.02550
Br693      Br  0.90291801  0.32022293  0.17180120    -0.02250
H694        H  0.81868903  0.29762192  0.15063324     0.09910
H695        H  0.79069158  0.44809823  0.19839549     0.07930
Br696      Br  0.70588084  0.42219356  0.17771774    -0.02670
C697        C  0.18145488  0.61943381  0.18280449    -0.09310
C698        C  0.13802774  0.63685207  0.18173367     0.06890
C699        C  0.12946723  0.67861480  0.16762751    -0.03080
C700        C  0.16340917  0.70010470  0.15457184    -0.07530
C701        C  0.20603727  0.68096533  0.15502263     0.06000
C702        C  0.21490772  0.64024718  0.16935602    -0.02550
Br703      Br  0.27276191  0.61325443  0.17247340    -0.02250
H704        H  0.18984055  0.58914741  0.19422459     0.09910
H705        H  0.15675290  0.73275725  0.14439168     0.07930
Br706      Br  0.07383273  0.71138008  0.16666890    -0.02670
C707        C  0.35045546  0.84440851  0.19711045    -0.09310
C708        C  0.33918258  0.89347450  0.19325560     0.06890
C709        C  0.30897400  0.90451144  0.17490297    -0.03080
C710        C  0.29297336  0.86677105  0.15972967    -0.07530
C711        C  0.30748852  0.81836525  0.16256211     0.06000
C712        C  0.33529529  0.80721219  0.18192018    -0.02550
Br713      Br  0.35493301  0.74172699  0.18782297    -0.02250
H714        H  0.37381457  0.83536550  0.21112896     0.09910
H715        H  0.27027666  0.87533735  0.14535274     0.07930
Br716      Br  0.29139258  0.97047112  0.16907307    -0.02670
C717        C  0.35813550  0.64206426  0.10895182    -0.09310
C718        C  0.33815365  0.68589265  0.10202436     0.06890
C719        C  0.34669372  0.70384665  0.07898735    -0.03080
C720        C  0.37289052  0.67686612  0.06299669    -0.07530
C721        C  0.39210766  0.63198715  0.06952206     0.06000
C722        C  0.38536760  0.61558209  0.09325772    -0.02550
Br723      Br  0.41079101  0.55698206  0.10567316    -0.02250
H724        H  0.35237102  0.62822810  0.12677861     0.09910
H725        H  0.37789613  0.69109721  0.04518703     0.07930
Br726      Br  0.32154546  0.76388065  0.06808843    -0.02670
C727        C  0.64386456  0.63747202  0.06261612    -0.09310
C728        C  0.59943955  0.62780610  0.06752796     0.06890
C729        C  0.58169978  0.64564695  0.08922931    -0.03080
C730        C  0.60839886  0.67166138  0.10550922    -0.07530
C731        C  0.65273307  0.68122649  0.10062469     0.06000
C732        C  0.67045088  0.66375194  0.07890955    -0.02550
Br733      Br  0.73013847  0.67633935  0.07025916    -0.02250
H734        H  0.65811244  0.62437802  0.04598523     0.09910
H735        H  0.59446181  0.68407772  0.12228524     0.07930
Br736      Br  0.52081029  0.63869507  0.09707009    -0.02670
C737        C  0.36054040  0.32529548  0.08634502    -0.09310
C738        C  0.33795944  0.35309337  0.10365120     0.06890
C739        C  0.34531767  0.40420335  0.10478661    -0.03080
C740        C  0.37244734  0.42644326  0.08800342    -0.07530
C741        C  0.39370271  0.39894902  0.07023286     0.06000
C742        C  0.38835718  0.34765724  0.06984527    -0.02550
Br743      Br  0.41973516  0.30614438  0.04794643    -0.02250
H744        H  0.35620070  0.28599228  0.08547911     0.09910
H745        H  0.37611721  0.46571657  0.08848181     0.07930
Br746      Br  0.32160273  0.44582905  0.12947965    -0.02670
C747        C  0.60169319  0.35013299  0.06696309    -0.09310
C748        C  0.59329429  0.40034439  0.07014666     0.06890
C749        C  0.61024923  0.42445426  0.09078871    -0.03080
C750        C  0.63442183  0.39823930  0.10773449    -0.07530
C751        C  0.64308312  0.34807894  0.10451006     0.06000
C752        C  0.62634418  0.32402315  0.08379319    -0.02550
Br753      Br  0.63872269  0.25667238  0.07645908    -0.02250
H754        H  0.58943453  0.33110911  0.05108429     0.09910
H755        H  0.64713944  0.41747873  0.12344082     0.07930
Br756      Br  0.60519528  0.49382745  0.09590580    -0.02670
C757        C  0.88321461  0.86644454  0.60675151    -0.09310
C758        C  0.83829239  0.85599651  0.60440847     0.06890
C759        C  0.81642012  0.86884499  0.58292805    -0.03080
C760        C  0.83929287  0.89331371  0.56491067    -0.07530
C761        C  0.88403841  0.90466480  0.56767475     0.06000
C762        C  0.90616415  0.88942786  0.58857528    -0.02550
Br763      Br  0.96838835  0.89492329  0.59276503    -0.02250
H764        H  0.90088515  0.85658266  0.62290919     0.09910
H765        H  0.82196517  0.90370848  0.54872573     0.07930
Br766      Br  0.75638680  0.85154471  0.57644644    -0.02670
C767        C  0.87948525  0.16068417  0.61167155    -0.09310
C768        C  0.83447958  0.17036171  0.60924417     0.06890
C769        C  0.81364620  0.16104633  0.58691087    -0.03080
C770        C  0.83765618  0.14020203  0.56804203    -0.07530
C771        C  0.88249390  0.12977900  0.57088825     0.06000
C772        C  0.90366174  0.14230865  0.59262131    -0.02550
Br773      Br  0.96608596  0.13992300  0.59681628    -0.02250
H774        H  0.89637839  0.16799527  0.62852426     0.09910
H775        H  0.82122475  0.13195304  0.55114837     0.07930
Br776      Br  0.75377431  0.17856811  0.58059263    -0.02670
C777        C  0.14919265  0.86371938  0.58859001    -0.09310
C778        C  0.13516694  0.87325107  0.61203031     0.06890
C779        C  0.10015679  0.90553278  0.61586840    -0.03080
C780        C  0.07838684  0.92585522  0.59637382    -0.07530
C781        C  0.09112554  0.91576814  0.57260792     0.06000
C782        C  0.12791717  0.88473388  0.56889023    -0.02550
Br783      Br  0.15242933  0.86942695  0.53800949    -0.02250
H784        H  0.17683615  0.83962254  0.58561609     0.09910
H785        H  0.05112761  0.94983038  0.60004458     0.07930
Br786      Br  0.08222859  0.92543273  0.64742375    -0.02670
C787        C  0.12390818  0.15524255  0.57144469    -0.09310
C788        C  0.09256977  0.11869519  0.57633519     0.06890
C789        C  0.08871452  0.10260385  0.60037662    -0.03080
C790        C  0.11492123  0.12356798  0.61845469    -0.07530
C791        C  0.14537694  0.16005948  0.61333184     0.06000
C792        C  0.15010029  0.17578612  0.58967192    -0.02550
Br793      Br  0.19153003  0.22567766  0.58162585    -0.02250
H794        H  0.12807361  0.16839761  0.55336907     0.09910
H795        H  0.11127571  0.11160338  0.63679381     0.07930
Br796      Br  0.04957762  0.05216203  0.61068760    -0.02670
C797        C  0.36461534  0.34319581  0.87516892    -0.09310
C798        C  0.32317069  0.32926379  0.88388357     0.06890
C799        C  0.31017682  0.34736665  0.90651149    -0.03080
C800        C  0.33775210  0.37893856  0.91959408    -0.07530
C801        C  0.37951086  0.39259110  0.91119321     0.06000
C802        C  0.39281114  0.37415776  0.88859982    -0.02550
Br803      Br  0.44983678  0.38688627  0.87581466    -0.02250
H804        H  0.37524568  0.32980555  0.85778432     0.09910
H805        H  0.32662551  0.39195120  0.93695482     0.07930
Br806      Br  0.25677270  0.32722624  0.92159543    -0.02670
C807        C  0.64798690  0.61496012  0.91358566    -0.09310
C808        C  0.60291949  0.61219762  0.90805065     0.06890
C809        C  0.58721887  0.63738649  0.88787232    -0.03080
C810        C  0.61634405  0.66484855  0.87394669    -0.07530
C811        C  0.66128649  0.66923735  0.88005292     0.06000
C812        C  0.67688069  0.64334029  0.90016175    -0.02550
Br813      Br  0.73590521  0.64924414  0.91222950    -0.02250
H814        H  0.66061462  0.59651524  0.92927112     0.09910
H815        H  0.60336840  0.68412956  0.85862089     0.07930
Br816      Br  0.52582991  0.64024891  0.88018808    -0.02670
C817        C  0.34859371  0.69639828  0.89579114    -0.09310
C818        C  0.32324934  0.67175588  0.87823057     0.06890
C819        C  0.32886417  0.62058403  0.87548372    -0.03080
C820        C  0.35842001  0.59544270  0.89051512    -0.07530
C821        C  0.38295294  0.62039849  0.90834302     0.06000
C822        C  0.37821420  0.67158928  0.91049561    -0.02550
Br823      Br  0.41304725  0.71031640  0.93247953    -0.02250
H824        H  0.34550744  0.73564434  0.89806054     0.09910
H825        H  0.36159801  0.55615492  0.88856821     0.07930
Br826      Br  0.29898927  0.58347323  0.85086484    -0.02670
C827        C  0.35497160  0.17653803  0.79163819    -0.09310
C828        C  0.34924498  0.12627392  0.79502898     0.06890
C829        C  0.31890592  0.10986135  0.81204195    -0.03080
C830        C  0.29664388  0.14409913  0.82638025    -0.07530
C831        C  0.30472511  0.19430452  0.82389447     0.06000
C832        C  0.33295086  0.21050428  0.80583985    -0.02550
Br833      Br  0.34349559  0.27870420  0.80037946    -0.02250
H834        H  0.37831543  0.18941033  0.77857437     0.09910
H835        H  0.27435138  0.13158568  0.84003599     0.07930
Br836      Br  0.31014055  0.04157977  0.81777427    -0.02670
C837        C  0.32406361  0.85629481  0.78807082    -0.09310
C838        C  0.34925208  0.89062476  0.80094554     0.06890
C839        C  0.35020851  0.88938858  0.82622212    -0.03080
C840        C  0.32795360  0.85245077  0.83818315    -0.07530
C841        C  0.30490908  0.81624729  0.82524967     0.06000
C842        C  0.30240169  0.81881466  0.79995805    -0.02550
Br843      Br  0.27506130  0.76880887  0.78044623    -0.02250
H844        H  0.32430029  0.85613525  0.76861863     0.09910
H845        H  0.32969028  0.85111354  0.85759143     0.07930
Br846      Br  0.38294941  0.93628149  0.84506630    -0.02670
C847        C  0.66631797  0.90080767  0.81703848    -0.09310
C848        C  0.63841669  0.88288578  0.79877490     0.06890
C849        C  0.63292407  0.83209643  0.79559330    -0.03080
C850        C  0.65232281  0.80020637  0.81160005    -0.07530
C851        C  0.67827742  0.81783469  0.83063545     0.06000
C852        C  0.68694691  0.86833371  0.83279343    -0.02550
Br853      Br  0.72491779  0.89418728  0.85744695    -0.02250
H854        H  0.67031738  0.93986120  0.81976020     0.09910
H855        H  0.64736244  0.76119665  0.80909424     0.07930
Br856      Br  0.59811602  0.80438174  0.76989965    -0.02670
C857        C  0.67928981  0.08576953  0.68392861    -0.09310
C858        C  0.64415119  0.11379335  0.69243943     0.06890
C859        C  0.64524920  0.16499200  0.68993795    -0.03080
C860        C  0.68143897  0.18710817  0.67924493    -0.07530
C861        C  0.71697376  0.15904220  0.67108555     0.06000
C862        C  0.71569164  0.10775945  0.67356079    -0.02550
Br863      Br  0.76387658  0.06586945  0.66515112    -0.02250
H864        H  0.67861341  0.04643423  0.68561599     0.09910
H865        H  0.68221113  0.22653150  0.67766297     0.07930
Br866      Br  0.60020117  0.20679343  0.70247163    -0.02670
C867        C  0.64198853  0.85931916  0.67435970    -0.09310
C868        C  0.64916060  0.89875359  0.69052809     0.06890
C869        C  0.69311882  0.91539985  0.69421259    -0.03080
C870        C  0.72749146  0.89313981  0.68186107    -0.07530
C871        C  0.71998435  0.85392519  0.66610683     0.06000
C872        C  0.67700381  0.83672497  0.66238638    -0.02550
Br873      Br  0.66507321  0.78210798  0.64138303    -0.02250
H874        H  0.60914438  0.84537301  0.67123539     0.09910
H875        H  0.76074916  0.90606126  0.68487831     0.07930
Br876      Br  0.71094672  0.96753905  0.71578540    -0.02670
C877        C  0.31129255  0.93120802  0.68057320    -0.09310
C878        C  0.34379858  0.89818043  0.68784415     0.06890
C879        C  0.33651899  0.84771078  0.68438958    -0.03080
C880        C  0.29656908  0.83125512  0.67446341    -0.07530
C881        C  0.26339288  0.86441455  0.66798150     0.06000
C882        C  0.27138572  0.91502698  0.67095785    -0.02550
Br883      Br  0.22780884  0.96419336  0.66495702    -0.02250
H884        H  0.31627594  0.97014443  0.68336914     0.09910
H885        H  0.29088835  0.79230747  0.67240652     0.07930
Br886      Br  0.37791483  0.79987184  0.69502875    -0.02670
C887        C  0.30209793  0.11174429  0.70377249    -0.09310
C888        C  0.34306210  0.11324006  0.69227551     0.06890
C889        C  0.34607489  0.13816409  0.67020127    -0.03080
C890        C  0.30888629  0.16107133  0.66053765    -0.07530
C891        C  0.26856104  0.15977385  0.67241314     0.06000
C892        C  0.26523998  0.13430752  0.69402737    -0.02550
Br893      Br  0.21045827  0.12713850  0.71039298    -0.02250
H894        H  0.29839761  0.09278242  0.72056872     0.09910
H895        H  0.31139753  0.17997481  0.64364900     0.07930
Br896      Br  0.39867206  0.14076295  0.65156380    -0.02670
C897        C  0.67641880  0.37233432  0.89702951    -0.09310
C898        C  0.65851852  0.34738146  0.87700790     0.06890
C899        C  0.61312741  0.35367943  0.87205144    -0.03080
C900        C  0.58669629  0.38128570  0.88781889    -0.07530
C901        C  0.60444089  0.40400103  0.90848325     0.06000
C902        C  0.65025134  0.40072665  0.91238935    -0.02550
Br903      Br  0.67978413  0.43663504  0.93760338    -0.02250
H904        H  0.71114030  0.36939447  0.90098363     0.09910
H905        H  0.55192397  0.38430647  0.88409173     0.07930
Br906      Br  0.58541601  0.32844397  0.84337575    -0.02670
C907        C  0.66507945  0.14928821  0.79085479    -0.09310
C908        C  0.64003833  0.11645801  0.80400906     0.06890
C909        C  0.63944048  0.12067257  0.82923187    -0.03080
C910        C  0.66166754  0.15926416  0.84079638    -0.07530
C911        C  0.68415576  0.19446983  0.82750858     0.06000
C912        C  0.68638307  0.18858294  0.80221681    -0.02550
Br913      Br  0.71195797  0.23622276  0.78147143    -0.02250
H914        H  0.66467011  0.14707155  0.77141195     0.09910
H915        H  0.66003133  0.16281678  0.86015461     0.07930
Br916      Br  0.60731788  0.07548231  0.84843830    -0.02670
C917        C  0.19384917  0.36102257  0.82835763    -0.09310
C918        C  0.18652273  0.31303452  0.83537865     0.06890
C919        C  0.14542721  0.29109049  0.83009286    -0.03080
C920        C  0.11213361  0.31854821  0.81887272    -0.07530
C921        C  0.11944068  0.36756848  0.81260679     0.06000
C922        C  0.16159967  0.38802960  0.81713941    -0.02550
Br923      Br  0.18064686  0.45174607  0.80762339    -0.02250
H924        H  0.22585809  0.37763522  0.83106815     0.09910
H925        H  0.08041369  0.30186894  0.81544301     0.07930
Br926      Br  0.13264211  0.22487657  0.83850326    -0.02670
C927        C  0.10450734  0.67407504  0.84152306    -0.09310
C928        C  0.09570852  0.67702947  0.81669183     0.06890
C929        C  0.12679554  0.70009607  0.80207818    -0.03080
C930        C  0.16703505  0.71476929  0.81183562    -0.07530
C931        C  0.17730601  0.70872136  0.83629870     0.06000
C932        C  0.14459209  0.69016541  0.85142114    -0.02550
Br933      Br  0.15229142  0.68654124  0.88554263    -0.02250
H934        H  0.08087255  0.65688971  0.85313438     0.09910
H935        H  0.19130999  0.72916868  0.79977919     0.07930
Br936      Br  0.11940067  0.70766201  0.76809233    -0.02670
C937        C  0.84445550  0.69081231  0.79867754    -0.09310
C938        C  0.87838228  0.67317303  0.81318253     0.06890
C939        C  0.87376630  0.67444006  0.83833471    -0.03080
C940        C  0.83471700  0.69106883  0.84857126    -0.07530
C941        C  0.79977134  0.70606243  0.83397945     0.06000
C942        C  0.80508214  0.70649155  0.80878641    -0.02550
Br943      Br  0.75795532  0.72198104  0.78706621    -0.02250
H944        H  0.84692929  0.68793064  0.77931175     0.09910
H945        H  0.83120841  0.69117722  0.86790345     0.07930
Br946      Br  0.91918680  0.65085668  0.85917517    -0.02670
C947        C  0.83059777  0.36735841  0.79808729    -0.09310
C948        C  0.87296854  0.35625551  0.80642732     0.06890
C949        C  0.87772257  0.32489819  0.82608742    -0.03080
C950        C  0.84015522  0.30692959  0.83761857    -0.07530
C951        C  0.79790246  0.32114437  0.83012846     0.06000
C952        C  0.79342702  0.35062070  0.80980975    -0.02550
Br953      Br  0.73712094  0.37016958  0.79763713    -0.02250
H954        H  0.82640956  0.39200843  0.78317818     0.09910
H955        H  0.84389698  0.28302518  0.85282143     0.07930
Br956      Br  0.93447830  0.30897335  0.83868865    -0.02670
C957        C  0.82757120  0.69248255  0.67500370    -0.09310
C958        C  0.84509124  0.73925191  0.67227202     0.06890
C959        C  0.88503726  0.75141742  0.68377200    -0.03080
C960        C  0.90657005  0.71684038  0.69791448    -0.07530
C961        C  0.88919690  0.66956814  0.70076537     0.06000
C962        C  0.84907741  0.65760394  0.68886527    -0.02550
Br963      Br  0.81975668  0.59563037  0.69105401    -0.02250
H964        H  0.79670571  0.68309494  0.66630122     0.09910
H965        H  0.93721449  0.72703336  0.70661417     0.07930
Br966      Br  0.91054617  0.81539841  0.68155188    -0.02670
C967        C  0.06817617  0.72572452  0.70145837    -0.09310
C968        C  0.08972591  0.68118515  0.70551241     0.06890
C969        C  0.13337498  0.67577691  0.69737851    -0.03080
C970        C  0.15360408  0.71364295  0.68498607    -0.07530
C971        C  0.13174123  0.75766780  0.68058676     0.06000
C972        C  0.08870507  0.76375661  0.68928285    -0.02550
Br973      Br  0.05703811  0.82391136  0.68655882    -0.02250
H974        H  0.03503117  0.73114859  0.70780933     0.09910
H975        H  0.18681546  0.70858586  0.67865608     0.07930
Br976      Br  0.16891060  0.61945744  0.70363987    -0.02670
C977        C  0.14102617  0.27475938  0.70506685    -0.09310
C978        C  0.14747529  0.28142551  0.68039152     0.06890
C979        C  0.13089957  0.32396276  0.66958588    -0.03080
C980        C  0.10751028  0.35802181  0.68331144    -0.07530
C981        C  0.10018054  0.35090722  0.70788537     0.06000
C982        C  0.11780348  0.30902387  0.71883866    -0.02550
Br983      Br  0.11388091  0.29799052  0.75266686    -0.02250
H984        H  0.15382799  0.24244728  0.71366747     0.09910
H985        H  0.09481254  0.39032562  0.67465239     0.07930
Br986      Br  0.14097825  0.33891918  0.63649551    -0.02670
C987        C  0.88223340  0.30207457  0.71779656    -0.09310
C988        C  0.89844636  0.34345248  0.70615600     0.06890
C989        C  0.88806674  0.35003749  0.68169689    -0.03080
C990        C  0.85941679  0.31796554  0.66994920    -0.07530
C991        C  0.84252974  0.27685228  0.68148452     0.06000
C992        C  0.85505374  0.26835841  0.70557756    -0.02550
Br993      Br  0.83896042  0.21014848  0.72225345    -0.02250
H994        H  0.89037782  0.29616962  0.73649166     0.09910
H995        H  0.85123255  0.32455196  0.65131579     0.07930
Br996      Br  0.91472882  0.39959749  0.66255351    -0.02670
loop_ 
_geom_bond_atom_site_label_1 
_geom_bond_atom_site_label_2 
_geom_bond_distance 
_geom_bond_site_symmetry_2 
_ccdc_geom_bond_type 
O1          Zr13   2.395       .  S
O1            C3   1.279       .  A
O2          Zr39   2.470       .  S
O2            C3   1.294       .  A
C3          C948   1.474       .  S
O4          Zr16   2.430       .  S
O4            C6   1.284       .  A
O5          Zr40   2.443       .  S
O5            C6   1.291       .  A
C6          C961   1.491       .  S
O7          Zr16   2.417       .  S
O7            C9   1.284       .  A
O8          Zr39   2.447       .  S
O8            C9   1.291       .  A
C9          C988   1.476       .  S
O10         Zr13   2.403       .  S
O10          C12   1.281       .  A
O11         Zr40   2.445       .  S
O11          C12   1.291       .  A
C12         C938   1.464       .  S
Zr13         O14   2.434       .  S
Zr13         O15   2.435       .  S
Zr13         O19   2.360       .  S
Zr13         O20   2.370       .  S
Zr13         O43   2.351       .  S
Zr13         O45   2.365       .  S
O14          H57   0.990       .  S
O15          H56   0.990       .  S
O15          H60   0.990       .  S
Zr16         O17   2.434       .  S
Zr16         O18   2.431       .  S
Zr16         O20   2.360       .  S
Zr16         O19   2.360       .  S
Zr16         O44   2.370       .  S
Zr16         O46   2.361       .  S
O17          H58   0.990       .  S
O17          H61   0.990       .  S
O18          H51   0.990       .  S
O19         Zr39   2.382       .  S
O20         Zr40   2.385       .  S
O20          H47   0.966       .  S
O21         Zr33   2.412       .  S
O21          C23   1.280       .  A
O22         Zr40   2.454   1_455  S
O22          C23   1.291       .  A
C23         C928   1.482       .  S
O24         Zr36   2.438       .  S
O24          C26   1.288       .  A
O25         Zr39   2.437   1_455  S
O25          C26   1.289       .  A
C26         C981   1.481       .  S
O27         Zr36   2.444       .  S
O27          C29   1.288       .  A
O28         Zr40   2.432   1_455  S
O28          C29   1.290       .  A
C29         C968   1.488       .  S
O30         Zr33   2.400       .  S
O30          C32   1.279       .  A
O31         Zr39   2.468   1_455  S
O31          C32   1.295       .  A
C32         C921   1.489       .  S
Zr33         O34   2.439       .  S
Zr33         O35   2.433       .  S
Zr33         O41   2.364       .  S
Zr33         O42   2.367       .  S
Zr33         O45   2.371   1_455  S
Zr33         O43   2.356   1_455  S
O34          H54   0.989       .  S
O34          H59   0.989       .  S
O35          H55   0.990       .  S
Zr36         O37   2.434       .  S
Zr36         O38   2.435       .  S
Zr36         O42   2.368       .  S
Zr36         O41   2.369       .  S
Zr36         O46   2.367   1_455  S
Zr36         O44   2.367   1_455  S
O37          H53   0.990       .  S
O38          H52   0.990       .  S
O38          H62   0.990       .  S
Zr39         O42   2.389   1_655  S
Zr39         O44   2.403       .  S
Zr39         O45   2.397       .  S
Zr40         O41   2.388   1_655  S
Zr40         O43   2.383       .  S
Zr40         O46   2.387       .  S
O41          H49   0.965       .  S
O44          H48   0.966       .  S
O45          H50   0.966       .  S
C63         C898   1.506       .  S
C63          C64   1.415       .  A
C63          C68   1.411       .  A
C64          C65   1.411       .  A
C64          H69   1.083       .  S
C65         C951   1.480       .  S
C65          C66   1.394       .  A
C66          C67   1.398       .  A
C66          H70   1.084       .  S
C67         C911   1.485       .  S
C67          C68   1.410       .  A
C68          H71   1.082       .  S
O72         Zr84   2.418       .  S
O72          C74   1.283       .  A
O73        Zr110   2.435       .  S
O73          C74   1.288       .  A
C74         C908   1.468       .  S
O75         Zr87   2.409       .  S
O75          C77   1.281       .  A
O76        Zr111   2.436   1_565  S
O76          C77   1.287       .  A
C77         C838   1.464       .  S
O78         Zr87   2.399       .  S
O78          C80   1.280       .  A
O79        Zr110   2.442   1_565  S
O79          C80   1.288       .  A
C80         C848   1.461       .  S
O81         Zr84   2.409       .  S
O81          C83   1.282       .  A
O82        Zr111   2.431       .  S
O82          C83   1.286       .  A
C83         C828   1.463       .  S
Zr84         O85   2.433       .  S
Zr84         O86   2.437       .  S
Zr84         O90   2.364       .  S
Zr84         O91   2.364       .  S
Zr84        O114   2.365       .  S
Zr84        O116   2.362       .  S
O85         H128   0.990       .  S
O86         H127   0.990       .  S
O86         H131   0.990       .  S
Zr87         O88   2.434       .  S
Zr87         O89   2.434       .  S
Zr87         O91   2.362   1_565  S
Zr87         O90   2.365   1_565  S
Zr87        O115   2.368       .  S
Zr87        O117   2.367       .  S
O88         H129   0.990       .  S
O88         H132   0.990       .  S
O89         H122   0.990       .  S
O90        Zr110   2.371       .  S
O91        Zr111   2.374       .  S
O91         H118   0.966       .  S
O92        Zr104   2.459       .  S
O92          C94   1.290       .  A
O93        Zr111   2.409       .  S
O93          C94   1.285       .  A
C94         C888   1.491       .  S
O95        Zr107   2.477       .  S
O95          C97   1.296       .  A
O96        Zr110   2.396   1_565  S
O96          C97   1.279       .  A
C97         C868   1.497       .  S
O98        Zr107   2.473       .  S
O98         C100   1.294       .  A
O99        Zr111   2.398   1_565  S
O99         C100   1.283       .  A
C100        C878   1.478       .  S
O101       Zr104   2.441       .  S
O101        C103   1.288       .  A
O102       Zr110   2.420       .  S
O102        C103   1.287       .  A
C103        C858   1.473       .  S
Zr104       O105   2.435       .  S
Zr104       O106   2.433       .  S
Zr104       O112   2.367       .  S
Zr104       O113   2.374       .  S
Zr104       O116   2.379       .  S
Zr104       O114   2.368       .  S
O105        H125   0.990       .  S
O105        H130   0.990       .  S
O106        H126   0.990       .  S
Zr107       O108   2.434       .  S
Zr107       O109   2.434       .  S
Zr107       O113   2.376   1_565  S
Zr107       O112   2.376   1_565  S
Zr107       O117   2.383       .  S
Zr107       O115   2.372       .  S
O108        H124   0.990       .  S
O109        H123   0.990       .  S
O109        H133   0.990       .  S
Zr110       O113   2.388       .  S
Zr110       O115   2.386   1_545  S
Zr110       O116   2.382       .  S
Zr111       O112   2.390       .  S
Zr111       O114   2.376       .  S
Zr111       O117   2.380   1_545  S
O112        H120   0.966       .  S
O115        H119   0.966       .  S
O116        H121   0.966       .  S
C134        C931   1.494       .  S
C134        C135   1.401       .  A
C134        C139   1.418       .  A
C135        C136   1.392       .  A
C135        H140   1.084       .  S
C136        C841   1.476       .  S
C136        C137   1.400       .  A
C137        C138   1.408       .  A
C137        H141   1.084       .  S
C138        C818   1.501       .  S
C138        C139   1.417       .  A
C139        H142   1.081       .  S
C143        C941   1.477       .  S
C143        C144   1.394       .  A
C143        C148   1.410       .  A
C144        C145   1.390       .  A
C144        H149   1.085       .  S
C145        C851   1.468       .  S
C145        C146   1.405       .  A
C146        C147   1.410       .  A
C146        H150   1.083       .  S
C147        C811   1.503       .  S
C147        C148   1.414       .  A
C148        H151   1.083       .  S
C152        C918   1.485       .  S
C152        C153   1.399       .  A
C152        C157   1.412       .  A
C153        C154   1.398       .  A
C153        H158   1.084       .  S
C154        C831   1.468       .  S
C154        C155   1.406       .  A
C155        C156   1.403       .  A
C155        H159   1.084       .  S
C156        C798   1.496       .  S
C156        C157   1.406       .  A
C157        H160   1.084       .  S
C161        C891   1.476       .  S
C161        C162   1.405       .  A
C161        C166   1.402       .  A
C162        C163   1.405       .  A
C162        H167   1.084       .  S
C163        C978   1.483       .  S
C163        C164   1.402       .  A
C164        C165   1.399       .  A
C164        H168   1.084       .  S
C165        C791   1.468       .  S
C165        C166   1.401       .  A
C166        H169   1.084       .  S
C170        C778   1.473       .  S
C170        C171   1.401       .  A
C170        C175   1.400       .  A
C171        C172   1.403       .  A
C171        H176   1.084       .  S
C172        C971   1.486       .  S
C172        C173   1.408       .  A
C173        C174   1.407       .  A
C173        H177   1.084       .  S
C174        C881   1.486       .  S
C174        C175   1.404       .  A
C175        H178   1.084       .  S
C179        C861   1.479       .  S
C179        C180   1.407       .  A
C179        C184   1.405       .  A
C180        C181   1.403       .  A
C180        H185   1.083       .  S
C181        C991   1.485       .  S
C181        C182   1.399       .  A
C182        C183   1.400       .  A
C182        H186   1.084       .  S
C183        C768   1.481       .  S
C183        C184   1.401       .  A
C184        H187   1.083       .  S
C188        C758   1.489       .  S
C188        C189   1.408       .  A
C188        C193   1.407       .  A
C189        C190   1.400       .  A
C189        H194   1.084       .  S
C190        C958   1.477       .  S
C190        C191   1.400       .  A
C191        C192   1.400       .  A
C191        H195   1.084       .  S
C192        C871   1.473       .  S
C192        C193   1.403       .  A
C193        H196   1.083       .  S
O197       Zr209   2.419       .  S
O197        C199   1.285       .  A
O198       Zr235   2.471       .  S
O198        C199   1.296       .  A
C199        C808   1.490       .  S
O200       Zr212   2.445   1_554  S
O200        C202   1.289       .  A
O201       Zr236   2.434       .  S
O201        C202   1.289       .  A
C202        C748   1.485       .  S
O203       Zr212   2.441       .  S
O203        C205   1.288       .  A
O204       Zr235   2.469       .  S
O204        C205   1.296       .  A
C205        C901   1.497       .  S
O206       Zr209   2.432   1_554  S
O206        C208   1.287       .  A
O207       Zr236   2.445       .  S
O207        C208   1.291       .  A
C208        C728   1.485       .  S
Zr209       O210   2.434       .  S
Zr209       O211   2.436       .  S
Zr209       O215   2.367       .  S
Zr209       O216   2.366   1_556  S
Zr209       O239   2.366   1_556  S
Zr209       O241   2.375       .  S
O210        H253   0.990       .  S
O211        H252   0.990       .  S
O211        H256   0.990       .  S
Zr212       O213   2.435       .  S
Zr212       O214   2.436       .  S
Zr212       O216   2.370   1_556  S
Zr212       O215   2.368       .  S
Zr212       O240   2.374       .  S
Zr212       O242   2.368   1_556  S
O213        H254   0.990   1_556  S
O213        H257   0.990       .  S
O214        H247   0.990       .  S
O215       Zr235   2.392       .  S
O216       Zr236   2.390       .  S
O216        H243   0.966       .  S
O217       Zr229   2.452   1_554  S
O217        C219   1.291       .  A
O218       Zr236   2.451       .  S
O218        C219   1.291       .  A
C219        C721   1.504       .  S
O220       Zr232   2.410       .  S
O220        C222   1.283       .  A
O221       Zr235   2.477       .  S
O221        C222   1.296       .  A
C222        C801   1.497       .  S
O223       Zr232   2.432   1_554  S
O223        C225   1.286       .  A
O224       Zr236   2.447       .  S
O224        C225   1.292       .  A
C225        C741   1.481       .  S
O226       Zr229   2.432       .  S
O226        C228   1.287       .  A
O227       Zr235   2.470       .  S
O227        C228   1.296       .  A
C228        C821   1.490       .  S
Zr229       O230   2.435       .  S
Zr229       O231   2.433       .  S
Zr229       O237   2.369   1_556  S
Zr229       O238   2.375       .  S
Zr229       O241   2.379       .  S
Zr229       O239   2.366   1_556  S
O230        H250   0.990   1_556  S
O230        H255   0.990       .  S
O231        H251   0.990       .  S
Zr232       O233   2.434       .  S
Zr232       O234   2.434       .  S
Zr232       O238   2.371       .  S
Zr232       O237   2.369   1_556  S
Zr232       O242   2.360   1_556  S
Zr232       O240   2.373       .  S
O233        H249   0.990       .  S
O234        H248   0.990       .  S
O234        H258   0.990       .  S
Zr235       O238   2.393       .  S
Zr235       O240   2.399       .  S
Zr235       O241   2.403       .  S
Zr236       O237   2.385       .  S
Zr236       O239   2.383       .  S
Zr236       O242   2.387       .  S
O237        H245   0.966       .  S
O240        H244   0.966       .  S
O241        H246   0.966       .  S
C259        C718   1.491       .  S
C259        C260   1.410       .  A
C259        C264   1.409       .  A
C260        C261   1.410       .  A
C260        H265   1.084       .  S
C261        C711   1.475       .  S
C261        C262   1.396       .  A
C262        C263   1.398       .  A
C262        H266   1.085       .  S
C263        C701   1.479       .  S
C263        C264   1.407       .  A
C264        H267   1.084       .  S
C268        C688   1.471       .  S
C268        C269   1.401       .  A
C268        C273   1.396       .  A
C269        C270   1.407       .  A
C269        H274   1.084       .  S
C270        C751   1.491       .  S
C270        C271   1.410       .  A
C271        C272   1.406       .  A
C271        H275   1.083       .  S
C272        C678   1.471       .  S
C272        C273   1.396       .  A
C273        H276   1.085       .  S
C277        C658   1.487       .  S
C277        C278   1.409       .  A
C277        C282   1.405       .  A
C278        C279   1.400       .  A
C278        H283   1.083       .  S
C279        C731   1.487       .  S
C279        C280   1.401       .  A
C280        C281   1.409       .  A
C280        H284   1.082       .  S
C281        C668   1.493       .  S
C281        C282   1.403       .  A
C282        H285   1.082       .  S
O286       Zr298   2.378       .  S
O286        C288   1.276       .  A
O287       Zr324   2.470   1_565  S
O287        C288   1.293       .  A
C288        C708   1.473       .  S
O289       Zr301   2.449       .  S
O289        C291   1.289       .  A
O290       Zr325   2.430   1_565  S
O290        C291   1.290       .  A
C291        C621   1.493       .  S
O292       Zr301   2.447       .  S
O292        C294   1.290       .  A
O293       Zr324   2.407   1_565  S
O293        C294   1.284       .  A
C294        C648   1.470       .  S
O295       Zr298   2.366       .  S
O295        C297   1.274       .  A
O296       Zr325   2.471   1_565  S
O296        C297   1.291       .  A
C297        C671   1.499       .  S
Zr298       O299   2.435       .  S
Zr298       O300   2.435       .  S
Zr298       O304   2.354       .  S
Zr298       O305   2.360       .  S
Zr298       O328   2.354   1_565  S
Zr298       O330   2.352   1_565  S
O299        H342   0.990       .  S
O300        H341   0.990       .  S
O300        H345   0.990       .  S
Zr301       O302   2.434       .  S
Zr301       O303   2.435       .  S
Zr301       O305   2.371       .  S
Zr301       O304   2.368       .  S
Zr301       O329   2.368   1_565  S
Zr301       O331   2.374   1_565  S
O302        H343   0.990       .  S
O302        H346   0.990       .  S
O303        H336   0.990       .  S
O304       Zr324   2.374   1_565  S
O305       Zr325   2.385   1_565  S
O305        H332   0.966       .  S
O306       Zr318   2.399       .  S
O306        C308   1.280       .  A
O307       Zr325   2.453       .  S
O307        C308   1.291       .  A
C308        C681   1.464       .  S
O309       Zr321   2.446       .  S
O309        C311   1.290       .  A
O310       Zr324   2.421       .  S
O310        C311   1.287       .  A
C311        C638   1.478       .  S
O312       Zr321   2.449       .  S
O312        C314   1.290       .  A
O313       Zr325   2.423       .  S
O313        C314   1.287       .  A
C314        C631   1.479       .  S
O315       Zr318   2.405       .  S
O315        C317   1.281       .  A
O316       Zr324   2.441       .  S
O316        C317   1.289       .  A
C317        C611   1.461       .  S
Zr318       O319   2.436       .  S
Zr318       O320   2.433       .  S
Zr318       O326   2.363       .  S
Zr318       O327   2.362       .  S
Zr318       O330   2.360       .  S
Zr318       O328   2.367       .  S
O319        H339   0.990       .  S
O319        H344   0.990       .  S
O320        H340   0.990       .  S
Zr321       O322   2.434       .  S
Zr321       O323   2.435       .  S
Zr321       O327   2.375       .  S
Zr321       O326   2.367       .  S
Zr321       O331   2.372       .  S
Zr321       O329   2.369       .  S
O322        H338   0.990       .  S
O323        H337   0.990       .  S
O323        H347   0.990       .  S
Zr324       O327   2.384       .  S
Zr324       O329   2.401       .  S
Zr324       O330   2.375       .  S
Zr325       O326   2.393       .  S
Zr325       O328   2.382       .  S
Zr325       O331   2.399       .  S
O326        H334   0.966       .  S
O329        H333   0.966       .  S
O330        H335   0.966       .  S
O348       Zr360   2.458   1_455  S
O348        C350   1.290       .  A
O349       Zr386   2.420       .  S
O349        C350   1.288       .  A
C350        C698   1.497       .  S
O351       Zr363   2.424       .  S
O351        C353   1.284       .  A
O352       Zr387   2.444       .  S
O352        C353   1.290       .  A
C353        C581   1.476       .  S
O354       Zr363   2.385   1_455  S
O354        C356   1.279       .  A
O355       Zr386   2.468       .  S
O355        C356   1.292       .  A
C356        C568   1.493       .  S
O357       Zr360   2.433       .  S
O357        C359   1.287       .  A
O358       Zr387   2.433       .  S
O358        C359   1.290       .  A
C359        C661   1.471       .  S
Zr360       O361   2.434       .  S
Zr360       O362   2.435       .  S
Zr360       O366   2.368   1_655  S
Zr360       O367   2.374       .  S
Zr360       O390   2.380       .  S
Zr360       O392   2.363   1_655  S
O361        H404   0.990   1_655  S
O362        H403   0.990   1_655  S
O362        H407   0.990       .  S
Zr363       O364   2.436       .  S
Zr363       O365   2.434       .  S
Zr363       O367   2.351       .  S
Zr363       O366   2.368   1_655  S
Zr363       O391   2.369   1_655  S
Zr363       O393   2.358       .  S
O364        H405   0.990       .  S
O364        H408   0.990       .  S
O365        H398   0.990   1_655  S
O366       Zr386   2.392       .  S
O367       Zr387   2.391       .  S
O367        H394   0.966       .  S
O368       Zr380   2.441       .  S
O368        C370   1.287       .  A
O369       Zr387   2.428       .  S
O369        C370   1.289       .  A
C370        C691   1.489       .  S
O371       Zr383   2.417   1_455  S
O371        C373   1.277       .  A
O372       Zr386   2.446       .  S
O372        C373   1.282       .  A
C373        C601   1.490       .  S
O374       Zr383   2.394       .  S
O374        C376   1.276       .  A
O375       Zr387   2.470       .  S
O375        C376   1.293       .  A
C376        C591   1.495       .  S
O377       Zr380   2.419   1_455  S
O377        C379   1.285       .  A
O378       Zr386   2.448       .  S
O378        C379   1.293       .  A
C379        C558   1.474       .  S
Zr380       O381   2.435       .  S
Zr380       O382   2.433       .  S
Zr380       O388   2.367       .  S
Zr380       O389   2.358   1_655  S
Zr380       O392   2.381   1_655  S
Zr380       O390   2.363       .  S
O381        H401   0.990       .  S
O381        H406   0.990       .  S
O382        H402   0.990       .  S
Zr383       O384   2.434       .  S
Zr383       O385   2.437   1_655  S
Zr383       O389   2.353   1_655  S
Zr383       O388   2.360       .  S
Zr383       O393   2.370       .  S
Zr383       O391   2.355   1_655  S
O384        H400   0.990       .  S
O385        H399   0.990       .  S
O385        H409   0.989       .  S
Zr386       O389   2.389       .  S
Zr386       O391   2.399       .  S
Zr386       O392   2.402       .  S
Zr387       O388   2.385       .  S
Zr387       O390   2.396       .  S
Zr387       O393   2.377       .  S
O388        H396   0.966       .  S
O391        H395   0.965       .  S
O392        H397   0.966       .  S
C410        C738   1.491       .  S
C410        C411   1.407       .  A
C410        C415   1.406       .  A
C411        C412   1.406       .  A
C411        H416   1.084       .  S
C412        C608   1.478       .  S
C412        C413   1.396       .  A
C413        C414   1.400       .  A
C413        H417   1.082       .  S
C414        C561   1.485       .  S
C414        C415   1.407       .  A
C415        H418   1.083       .  S
C419        C548   1.476       .  S
C419        C420   1.399       .  A
C419        C424   1.401       .  A
C420        C421   1.404       .  A
C420        H425   1.084       .  S
C421        C641   1.482       .  S
C421        C422   1.404       .  A
C422        C423   1.404       .  A
C422        H426   1.084       .  S
C423        C598   1.488       .  S
C423        C424   1.408       .  A
C424        H427   1.083       .  S
C428        C628   1.476       .  S
C428        C429   1.407       .  A
C428        C433   1.399       .  A
C429        C430   1.410       .  A
C429        H434   1.079       .  S
C430        C588   1.509       .  S
C430        C431   1.418       .  A
C431        C432   1.400       .  A
C431        H435   1.081       .  S
C432        C538   1.484       .  S
C432        C433   1.396       .  A
C433        H436   1.084       .  S
C437        C528   1.471       .  S
C437        C438   1.401       .  A
C437        C442   1.390       .  A
C438        C439   1.413       .  A
C438        H443   1.076       .  S
C439        C571   1.512       .  S
C439        C440   1.413       .  A
C440        C441   1.404       .  A
C440        H444   1.079       .  S
C441        C651   1.468       .  S
C441        C442   1.393       .  A
C442        H445   1.085       .  S
C446        C618   1.486       .  S
C446        C447   1.406       .  A
C446        C451   1.402       .  A
C447        C448   1.408       .  A
C447        H452   1.081       .  S
C448        C578   1.499       .  S
C448        C449   1.412       .  A
C449        C450   1.404       .  A
C449        H453   1.083       .  S
C450        C518   1.489       .  S
C450        C451   1.402       .  A
C451        H454   1.084       .  S
O455       Zr467   2.431       .  S
O455        C457   1.283       .  A
O456       Zr493   2.425   1_465  S
O456        C457   1.288       .  A
C457        C781   1.494       .  S
O458       Zr470   2.420       .  S
O458        C460   1.281       .  A
O459       Zr494   2.459   1_455  S
O459        C460   1.295       .  A
C460        C551   1.500       .  S
O461       Zr470   2.441       .  S
O461        C463   1.289       .  A
O462       Zr493   2.419   1_455  S
O462        C463   1.284       .  A
C463        C788   1.493       .  S
O464       Zr467   2.394       .  S
O464        C466   1.276       .  A
O465       Zr494   2.468   1_465  S
O465        C466   1.296       .  A
C466        C531   1.493       .  S
Zr467       O468   2.434       .  S
Zr467       O469   2.436       .  S
Zr467       O473   2.352   1_565  S
Zr467       O474   2.373   1_565  S
Zr467       O497   2.370   1_455  S
Zr467       O499   2.359   1_455  S
O468        H511   0.990       .  S
O469        H510   0.990       .  S
O469        H514   0.990       .  S
Zr470       O471   2.437       .  S
Zr470       O472   2.434       .  S
Zr470       O474   2.372       .  S
Zr470       O473   2.357       .  S
Zr470       O498   2.366   1_455  S
Zr470       O500   2.377   1_455  S
O471        H512   0.990       .  S
O471        H515   0.990       .  S
O472        H505   0.990       .  S
O473       Zr493   2.363   1_455  S
O474       Zr494   2.391   1_455  S
O474        H501   0.966       .  S
O475       Zr487   2.435       .  S
O475        C477   1.288       .  A
O476       Zr494   2.442   1_565  S
O476        C477   1.290       .  A
C477        C521   1.483       .  S
O478       Zr490   2.431       .  S
O478        C480   1.285       .  A
O479       Zr493   2.412       .  S
O479        C480   1.285       .  A
C480        C771   1.470       .  S
O481       Zr490   2.419       .  S
O481        C483   1.284       .  A
O482       Zr494   2.462       .  S
O482        C483   1.294       .  A
C483        C541   1.482       .  S
O484       Zr487   2.451       .  S
O484        C486   1.290       .  A
O485       Zr493   2.418   1_565  S
O485        C486   1.286       .  A
C486        C761   1.481       .  S
Zr487       O488   2.436       .  S
Zr487       O489   2.434       .  S
Zr487       O495   2.371   1_565  S
Zr487       O496   2.368   1_565  S
Zr487       O499   2.368       .  S
Zr487       O497   2.373       .  S
O488        H508   0.990       .  S
O488        H513   0.990       .  S
O489        H509   0.990       .  S
Zr490       O491   2.432       .  S
Zr490       O492   2.435       .  S
Zr490       O496   2.367       .  S
Zr490       O495   2.373       .  S
Zr490       O500   2.374       .  S
Zr490       O498   2.367       .  S
O491        H507   0.990       .  S
O492        H506   0.990       .  S
O492        H516   0.990       .  S
Zr493       O496   2.375       .  S
Zr493       O498   2.381       .  S
Zr493       O499   2.376   1_545  S
Zr494       O495   2.397       .  S
Zr494       O497   2.392   1_545  S
Zr494       O500   2.392       .  S
O495        H503   0.965       .  S
O498        H502   0.966       .  S
O499        H504   0.966       .  S
C517        C518   1.407       .  A
C517        C522   1.402       .  A
C517        H524   1.083       .  S
C518        C519   1.411       .  A
C519        C520   1.399       .  A
C519       Br526   1.921       .  S
C520        C521   1.406       .  A
C520        H525   1.084       .  S
C521        C522   1.411       .  A
C522       Br523   1.920   1_565  S
C527        C528   1.389       .  A
C527        C532   1.394       .  A
C527        H534   1.084       .  S
C528        C529   1.408       .  A
C529        C530   1.401       .  A
C529       Br536   1.918       .  S
C530        C531   1.406       .  A
C530        H535   1.083       .  S
C531        C532   1.431       .  A
C532       Br533   1.926       .  S
C537        C538   1.399       .  A
C537        C542   1.396       .  A
C537        H544   1.084       .  S
C538        C539   1.416       .  A
C539        C540   1.403       .  A
C539       Br546   1.919       .  S
C540        C541   1.402       .  A
C540        H545   1.083       .  S
C541        C542   1.416       .  A
C542       Br543   1.919       .  S
C547        C548   1.394       .  A
C547        C552   1.400       .  A
C547        H554   1.084       .  S
C548        C549   1.407       .  A
C549        C550   1.400       .  A
C549       Br556   1.918       .  S
C550        C551   1.408       .  A
C550        H555   1.083       .  S
C551        C552   1.430       .  A
C552       Br553   1.925       .  S
C557        C558   1.405       .  A
C557        C562   1.399       .  A
C557        H564   1.084       .  S
C558        C559   1.404       .  A
C559        C560   1.392       .  A
C559       Br566   1.908       .  S
C560        C561   1.404       .  A
C560        H565   1.081       .  S
C561        C562   1.414       .  A
C562       Br563   1.922       .  S
C567        C568   1.406       .  A
C567        C572   1.385       .  A
C567        H574   1.084       .  S
C568        C569   1.405       .  A
C569        C570   1.410       .  A
C569       Br576   1.918       .  S
C570        C571   1.424       .  A
C570        H575   1.080       .  S
C571        C572   1.423       .  A
C572       Br573   1.932       .  S
C577        C578   1.409       .  A
C577        C582   1.398       .  A
C577        H584   1.083       .  S
C578        C579   1.421       .  A
C579        C580   1.402       .  A
C579       Br586   1.922       .  S
C580        C581   1.400       .  A
C580        H585   1.084       .  S
C581        C582   1.408       .  A
C582       Br583   1.921       .  S
C587        C588   1.402       .  A
C587        C592   1.382       .  A
C587        H594   1.078       .  S
C588        C589   1.425       .  A
C589        C590   1.414       .  A
C589       Br596   1.920       .  S
C590        C591   1.407       .  A
C590        H595   1.083       .  S
C591        C592   1.419       .  A
C592       Br593   1.928       .  S
C597        C598   1.412       .  A
C597        C602   1.408       .  A
C597        H604   1.083       .  S
C598        C599   1.410       .  A
C599        C600   1.386       .  A
C599       Br606   1.924       .  S
C600        C601   1.405       .  A
C600        H605   1.077       .  S
C601        C602   1.412       .  A
C602       Br603   1.919       .  S
C607        C608   1.402       .  A
C607        C612   1.397       .  A
C607        H614   1.084       .  S
C608        C609   1.414       .  A
C609        C610   1.398       .  A
C609       Br616   1.922       .  S
C610        C611   1.400       .  A
C610        H615   1.084       .  S
C611        C612   1.407       .  A
C612       Br613   1.919       .  S
C617        C618   1.403       .  A
C617        C622   1.403       .  A
C617        H624   1.084       .  S
C618        C619   1.412       .  A
C619        C620   1.396       .  A
C619       Br626   1.922       .  S
C620        C621   1.406       .  A
C620        H625   1.083       .  S
C621        C622   1.419       .  A
C622       Br623   1.919       .  S
C627        C628   1.399       .  A
C627        C632   1.396       .  A
C627        H634   1.084       .  S
C628        C629   1.410       .  A
C629        C630   1.399       .  A
C629       Br636   1.920       .  S
C630        C631   1.405       .  A
C630        H635   1.084       .  S
C631        C632   1.414       .  A
C632       Br633   1.915       .  S
C637        C638   1.405       .  A
C637        C642   1.399       .  A
C637        H644   1.084       .  S
C638        C639   1.412       .  A
C639        C640   1.396       .  A
C639       Br646   1.921       .  S
C640        C641   1.404       .  A
C640        H645   1.083       .  S
C641        C642   1.412       .  A
C642       Br643   1.921       .  S
C647        C648   1.402       .  A
C647        C652   1.396       .  A
C647        H654   1.084       .  S
C648        C649   1.412       .  A
C649        C650   1.392       .  A
C649       Br656   1.913       .  S
C650        C651   1.397       .  A
C650        H655   1.084       .  S
C651        C652   1.410       .  A
C652       Br653   1.921       .  S
C657        C658   1.406       .  A
C657        C662   1.393       .  A
C657        H664   1.083       .  S
C658        C659   1.417       .  A
C659        C660   1.399       .  A
C659       Br666   1.923       .  S
C660        C661   1.401       .  A
C660        H665   1.084       .  S
C661        C662   1.404       .  A
C662       Br663   1.909       .  S
C667        C668   1.417       .  A
C667        C672   1.413       .  A
C667        H674   1.083       .  S
C668        C669   1.407       .  A
C669        C670   1.380       .  A
C669       Br676   1.927       .  S
C670        C671   1.414       .  A
C670        H675   1.082       .  S
C671        C672   1.412       .  A
C672       Br673   1.918       .  S
C677        C678   1.405       .  A
C677        C682   1.405       .  A
C677        H684   1.083       .  S
C678        C679   1.405       .  A
C679        C680   1.391       .  A
C679       Br686   1.921       .  S
C680        C681   1.402       .  A
C680        H685   1.084       .  S
C681        C682   1.406       .  A
C682       Br683   1.917       .  S
C687        C688   1.398       .  A
C687        C692   1.398       .  A
C687        H694   1.084       .  S
C688        C689   1.405       .  A
C689        C690   1.395       .  A
C689       Br696   1.921       .  S
C690        C691   1.407       .  A
C690        H695   1.082       .  S
C691        C692   1.419       .  A
C692       Br693   1.919       .  S
C697        C698   1.410       .  A
C697        C702   1.396       .  A
C697        H704   1.082       .  S
C698        C699   1.420       .  A
C699        C700   1.403       .  A
C699       Br706   1.921       .  S
C700        C701   1.403       .  A
C700        H705   1.084       .  S
C701        C702   1.405       .  A
C702       Br703   1.922       .  S
C707        C708   1.405       .  A
C707        C712   1.390       .  A
C707        H714   1.084       .  S
C708        C709   1.407       .  A
C709        C710   1.409       .  A
C709       Br716   1.915       .  S
C710        C711   1.408       .  A
C710        H715   1.083       .  S
C711        C712   1.404       .  A
C712       Br713   1.922       .  S
C717        C718   1.404       .  A
C717        C722   1.406       .  A
C717        H724   1.084       .  S
C718        C719   1.407       .  A
C719        C720   1.404       .  A
C719       Br726   1.919       .  S
C720        C721   1.413       .  A
C720        H725   1.083       .  S
C721        C722   1.419       .  A
C722       Br723   1.918       .  S
C727        C728   1.410       .  A
C727        C732   1.402       .  A
C727        H734   1.083       .  S
C728        C729   1.410       .  A
C729        C730   1.400       .  A
C729       Br736   1.921       .  S
C730        C731   1.406       .  A
C730        H735   1.081       .  S
C731        C732   1.407       .  A
C732       Br733   1.918       .  S
C737        C738   1.405       .  A
C737        C742   1.402       .  A
C737        H744   1.083       .  S
C738        C739   1.416       .  A
C739        C740   1.399       .  A
C739       Br746   1.921       .  S
C740        C741   1.399       .  A
C740        H745   1.080       .  S
C741        C742   1.412       .  A
C742       Br743   1.918       .  S
C747        C748   1.407       .  A
C747        C752   1.402       .  A
C747        H754   1.084       .  S
C748        C749   1.412       .  A
C749        C750   1.400       .  A
C749       Br756   1.922       .  S
C750        C751   1.407       .  A
C750        H755   1.083       .  S
C751        C752   1.412       .  A
C752       Br753   1.920       .  S
C757        C758   1.403       .  A
C757        C762   1.392       .  A
C757        H764   1.083       .  S
C758        C759   1.415       .  A
C759        C760   1.404       .  A
C759       Br766   1.920       .  S
C760        C761   1.405       .  A
C760        H765   1.083       .  S
C761        C762   1.410       .  A
C762       Br763   1.915       .  S
C767        C768   1.404       .  A
C767        C772   1.387       .  A
C767        H774   1.083       .  S
C768        C769   1.412       .  A
C769        C770   1.402       .  A
C769       Br776   1.920       .  S
C770        C771   1.406       .  A
C770        H775   1.083       .  S
C771        C772   1.405       .  A
C772       Br773   1.917       .  S
C777        C778   1.399       .  A
C777        C782   1.402       .  A
C777        H784   1.084       .  S
C778        C779   1.403       .  A
C779        C780   1.392       .  A
C779       Br786   1.918       .  S
C780        C781   1.407       .  A
C780        H785   1.079       .  S
C781        C782   1.423       .  A
C782       Br783   1.923       .  S
C787        C788   1.412       .  A
C787        C792   1.398       .  A
C787        H794   1.083       .  S
C788        C789   1.422       .  A
C789        C790   1.397       .  A
C789       Br796   1.920       .  S
C790        C791   1.396       .  A
C790        H795   1.084       .  S
C791        C792   1.401       .  A
C792       Br793   1.918       .  S
C797        C798   1.411       .  A
C797        C802   1.409       .  A
C797        H804   1.083       .  S
C798        C799   1.408       .  A
C799        C800   1.398       .  A
C799       Br806   1.922       .  S
C800        C801   1.412       .  A
C800        H805   1.083       .  S
C801        C802   1.412       .  A
C802       Br803   1.918       .  S
C807        C808   1.408       .  A
C807        C812   1.401       .  A
C807        H814   1.084       .  S
C808        C809   1.408       .  A
C809        C810   1.407       .  A
C809       Br816   1.919       .  S
C810        C811   1.414       .  A
C810        H815   1.083       .  S
C811        C812   1.414       .  A
C812       Br813   1.922       .  S
C817        C818   1.406       .  A
C817        C822   1.398       .  A
C817        H824   1.084       .  S
C818        C819   1.417       .  A
C819        C820   1.412       .  A
C819       Br826   1.918       .  S
C820        C821   1.407       .  A
C820        H825   1.083       .  S
C821        C822   1.412       .  A
C822       Br823   1.920       .  S
C827        C828   1.401       .  A
C827        C832   1.390       .  A
C827        H834   1.084       .  S
C828        C829   1.408       .  A
C829        C830   1.402       .  A
C829       Br836   1.918       .  S
C830        C831   1.404       .  A
C830        H835   1.083       .  S
C831        C832   1.405       .  A
C832       Br833   1.921       .  S
C837        C838   1.398       .  A
C837        C842   1.396       .  A
C837        H844   1.084       .  S
C838        C839   1.410       .  A
C839        C840   1.396       .  A
C839       Br846   1.919       .  S
C840        C841   1.401       .  A
C840        H845   1.084       .  S
C841        C842   1.414       .  A
C842       Br843   1.920       .  S
C847        C848   1.403       .  A
C847        C852   1.404       .  A
C847        H854   1.083       .  S
C848        C849   1.408       .  A
C849        C850   1.387       .  A
C849       Br856   1.921       .  S
C850        C851   1.398       .  A
C850        H855   1.084       .  S
C851        C852   1.409       .  A
C852       Br853   1.916       .  S
C857        C858   1.401       .  A
C857        C862   1.395       .  A
C857        H864   1.082       .  S
C858        C859   1.410       .  A
C859        C860   1.399       .  A
C859       Br866   1.919       .  S
C860        C861   1.404       .  A
C860        H865   1.084       .  S
C861        C862   1.412       .  A
C862       Br863   1.922       .  S
C867        C868   1.411       .  A
C867        C872   1.404       .  A
C867        H874   1.083       .  S
C868        C869   1.427       .  A
C869        C870   1.395       .  A
C869       Br876   1.927       .  S
C870        C871   1.394       .  A
C870        H875   1.084       .  S
C871        C872   1.404       .  A
C872       Br873   1.917       .  S
C877        C878   1.404       .  A
C877        C882   1.394       .  A
C877        H884   1.084       .  S
C878        C879   1.408       .  A
C879        C880   1.404       .  A
C879       Br886   1.917       .  S
C880        C881   1.409       .  A
C880        H885   1.083       .  S
C881        C882   1.412       .  A
C882       Br883   1.924       .  S
C887        C888   1.409       .  A
C887        C892   1.394       .  A
C887        H894   1.083       .  S
C888        C889   1.419       .  A
C889        C890   1.404       .  A
C889       Br896   1.920       .  S
C890        C891   1.402       .  A
C890        H895   1.084       .  S
C891        C892   1.404       .  A
C892       Br893   1.921       .  S
C897        C898   1.405       .  A
C897        C902   1.403       .  A
C897        H904   1.083       .  S
C898        C899   1.421       .  A
C899        C900   1.410       .  A
C899       Br906   1.920       .  S
C900        C901   1.405       .  A
C900        H905   1.082       .  S
C901        C902   1.415       .  A
C902       Br903   1.920       .  S
C907        C908   1.397       .  A
C907        C912   1.396       .  A
C907        H914   1.084       .  S
C908        C909   1.409       .  A
C909        C910   1.400       .  A
C909       Br916   1.919       .  S
C910        C911   1.404       .  A
C910        H915   1.083       .  S
C911        C912   1.419       .  A
C912       Br913   1.923       .  S
C917        C918   1.393       .  A
C917        C922   1.382       .  A
C917        H924   1.084       .  S
C918        C919   1.415       .  A
C919        C920   1.412       .  A
C919       Br926   1.917       .  S
C920        C921   1.408       .  A
C920        H925   1.083       .  S
C921        C922   1.420       .  A
C922       Br923   1.919       .  S
C927        C928   1.411       .  A
C927        C932   1.404       .  A
C927        H934   1.084       .  S
C928        C929   1.409       .  A
C929        C930   1.394       .  A
C929       Br936   1.920       .  S
C930        C931   1.408       .  A
C930        H935   1.081       .  S
C931        C932   1.410       .  A
C932       Br933   1.918       .  S
C937        C938   1.399       .  A
C937        C942   1.396       .  A
C937        H944   1.084       .  S
C938        C939   1.410       .  A
C939        C940   1.399       .  A
C939       Br946   1.919       .  S
C940        C941   1.401       .  A
C940        H945   1.083       .  S
C941        C942   1.415       .  A
C942       Br943   1.923       .  S
C947        C948   1.405       .  A
C947        C952   1.393       .  A
C947        H954   1.084       .  S
C948        C949   1.408       .  A
C949        C950   1.409       .  A
C949       Br956   1.916       .  S
C950        C951   1.408       .  A
C950        H955   1.083       .  S
C951        C952   1.405       .  A
C952       Br953   1.921       .  S
C957        C958   1.396       .  A
C957        C962   1.397       .  A
C957        H964   1.084       .  S
C958        C959   1.409       .  A
C959        C960   1.401       .  A
C959       Br966   1.920       .  S
C960        C961   1.408       .  A
C960        H965   1.083       .  S
C961        C962   1.422       .  A
C962       Br963   1.921       .  S
C967        C968   1.406       .  A
C967        C972   1.400       .  A
C967        H974   1.084       .  S
C968        C969   1.417       .  A
C969        C970   1.398       .  A
C969       Br976   1.920       .  S
C970        C971   1.402       .  A
C970        H975   1.084       .  S
C971        C972   1.412       .  A
C972       Br973   1.917       .  S
C977        C978   1.405       .  A
C977        C982   1.400       .  A
C977        H984   1.084       .  S
C978        C979   1.411       .  A
C979        C980   1.398       .  A
C979       Br986   1.922       .  S
C980        C981   1.406       .  A
C980        H985   1.084       .  S
C981        C982   1.411       .  A
C982       Br983   1.918       .  S
C987        C988   1.404       .  A
C987        C992   1.404       .  A
C987        H994   1.083       .  S
C988        C989   1.411       .  A
C989        C990   1.390       .  A
C989       Br996   1.920       .  S
C990        C991   1.402       .  A
C990        H995   1.084       .  S
C991        C992   1.415       .  A
C992       Br993   1.920       .  S
