geometry optimzed in LAMMPS
_audit_creation_date              2020-12-01 
_audit_creation_method            'lammps2cif' 
_symmetry_space_group_name_H-M    'P1' 
_symmetry_Int_Tables_number       1 
_symmetry_cell_setting            triclinic 
loop_ 
_symmetry_equiv_pos_as_xyz 
  x,y,z 
_cell_length_a                    56.63743979 
_cell_length_b                    56.995142704920106 
_cell_length_c                    41.77381722133123 
_cell_angle_alpha                 90.43707796082975 
_cell_angle_beta                  89.80256245973754 
_cell_angle_gamma                 134.0294387807781 
loop_ 
_atom_site_label 
_atom_site_type_symbol 
_atom_site_fract_x 
_atom_site_fract_y 
_atom_site_fract_z 
_atom_site_charge 
O1          O  0.48193904  0.49958859  0.21224884    -0.72800
O2          O  0.49056886  0.45536893  0.27769075    -0.73800
O3          O  0.49033185  0.45626638  0.21004918    -0.62400
O4          O  0.48184130  0.49843801  0.28040324    -0.70800
O5          O  0.42788998  0.45631233  0.28044408    -0.70400
O6          O  0.43623243  0.41454616  0.20856264    -0.61600
O7          O  0.43670830  0.41276870  0.27758083    -0.74100
O8          O  0.42778266  0.45824909  0.21200674    -0.72900
Cu9        Cu  0.48792626  0.47880919  0.24510139     1.04600
Cu10       Cu  0.43018446  0.43392180  0.24464991     1.04300
C11         C  0.45379707  0.48602915  0.20140416     0.93400
C12         C  0.46527213  0.42730882  0.28831981     0.92500
C13         C  0.46475874  0.42903493  0.19788677     0.84700
C14         C  0.45362283  0.48393680  0.29194683     0.90900
N15         N  0.86640917  0.46938018  0.45906326    -0.27200
N16         N  0.83880029  0.45305808  0.44288071    -0.35000
C17         C  0.84512333  0.45499805  0.41140694     0.01200
C18         C  0.87844056  0.47378813  0.40775383     0.07200
C19         C  0.89113147  0.48253356  0.43847822    -0.05900
H20         H  0.82682245  0.44342790  0.39266410     0.07900
H21         H  0.91619964  0.49622195  0.44544377     0.09100
Cu22       Cu  0.79427117  0.42867905  0.46547466     0.44200
Cu23       Cu  0.87214390  0.47471026  0.99900526     0.42000
Cu24       Cu  0.79650337  0.43533817  0.03994135     0.43900
N25         N  0.75300240  0.40553100  0.49377821    -0.34500
N26         N  0.75605529  0.41216442  0.01005938    -0.28800
C27         C  0.72576100  0.39818588  0.01878594    -0.04900
C28         C  0.70198848  0.37730751  0.50910421     0.07300
C29         C  0.72345099  0.39254928  0.48359820     0.01100
H30         H  0.71850516  0.39721520  0.04310201     0.08800
H31         H  0.71760642  0.39276419  0.45902446     0.07800
N32         N  0.84070346  0.45971312  0.06359495    -0.36000
N33         N  0.86866288  0.47562925  0.04823299    -0.28200
C34         C  0.89274405  0.48846979  0.06961337    -0.03400
C35         C  0.87932034  0.47994539  0.09995594     0.05200
C36         C  0.84619386  0.46147406  0.09528600     0.03300
H37         H  0.91773931  0.50127587  0.06342954     0.08400
H38         H  0.82738739  0.44962639  0.11349502     0.07200
N39         N  0.49086338  0.37246219  0.03968699    -0.27200
N40         N  0.50793869  0.36942833  0.05726782    -0.35000
C41         C  0.50559218  0.37430283  0.08821659     0.01200
C42         C  0.48617703  0.38089201  0.09026466     0.07200
C43         C  0.47710432  0.37923019  0.05892549    -0.05900
H44         H  0.51799360  0.37401348  0.10760458     0.07900
H45         H  0.46332975  0.38466100  0.05049007     0.09100
Cu46       Cu  0.53699267  0.36304501  0.03758644     0.44200
Cu47       Cu  0.49195099  0.37292387  0.99015769     0.42000
Cu48       Cu  0.54227477  0.36703601  0.44676294     0.43900
N49         N  0.56879013  0.36288792  0.01269617    -0.34500
N50         N  0.57363084  0.36741532  0.47319377    -0.28800
C51         C  0.58628799  0.35523585  0.46446207    -0.04900
C52         C  0.60349657  0.35842128  0.00001872     0.07300
C53         C  0.58359499  0.35369434  0.02385390     0.01100
H54         H  0.58101733  0.34264647  0.44209108     0.08800
H55         H  0.57988180  0.34397373  0.04748282     0.07800
N56         N  0.51121966  0.37049858  0.42666351    -0.36000
N57         N  0.49231202  0.37147423  0.44393422    -0.28200
C58         C  0.47696741  0.37604503  0.42440153    -0.03400
C59         C  0.48705306  0.37855116  0.39335500     0.05200
C60         C  0.50881154  0.37496890  0.39569624     0.03300
H61         H  0.46187901  0.38009693  0.43247740     0.08400
H62         H  0.52303091  0.37701229  0.37650579     0.07200
C63         C  0.61959857  0.30586227  0.00168058     0.80400
N64         N  0.65210603  0.32752120  0.99480124    -0.78000
C65         C  0.66963017  0.35976924  0.99229159     0.82800
N66         N  0.65405443  0.37008360  0.99440411    -0.77900
C67         C  0.62123778  0.34824798  0.00038030     0.82900
N68         N  0.60226543  0.31544794  0.48963676    -0.79600
N69         N  0.48835753  0.10549849  0.05393035    -0.27200
N70         N  0.50583307  0.13302545  0.07040222    -0.35000
C71         C  0.50433430  0.12655592  0.10165209     0.01200
C72         C  0.48473993  0.09327684  0.10496064     0.07200
C73         C  0.47503936  0.08079191  0.07413953    -0.05900
H74         H  0.51800815  0.14495987  0.12030997     0.07900
H75         H  0.46192361  0.05614494  0.06658006     0.09100
Cu76       Cu  0.53494566  0.17837118  0.04884686     0.44200
Cu77       Cu  0.48778309  0.10010332  0.50686560     0.42000
Cu78       Cu  0.52449946  0.17111774  0.46072655     0.43900
N79         N  0.56680366  0.22027753  0.02142391    -0.34500
N80         N  0.55676257  0.21491250  0.48614364    -0.28800
C81         C  0.57216409  0.24480695  0.47525694    -0.04900
C82         C  0.60087474  0.27113233  0.00445468     0.07300
C83         C  0.58008151  0.25039611  0.02896157     0.01100
H84         H  0.56867925  0.24977355  0.45170754     0.08800
H85         H  0.57509237  0.25673084  0.05072134     0.07800
N86         N  0.49799556  0.12525485  0.44041782    -0.36000
N87         N  0.48450423  0.09922678  0.45768970    -0.28200
C88         C  0.47314084  0.07438742  0.43816667    -0.03400
C89         C  0.47979773  0.08515303  0.40681961     0.05200
C90         C  0.49553550  0.11760825  0.40927200     0.03300
H91         H  0.46339637  0.05119163  0.44652403     0.08400
H92         H  0.50616952  0.13499670  0.39001757     0.07200
O93         O  0.45007092  0.94583959  0.21572196    -0.72800
O94         O  0.44855012  0.99208354  0.28719385    -0.73800
O95         O  0.44928689  0.99501941  0.21894387    -0.62400
O96         O  0.44984521  0.94341307  0.28340940    -0.70800
O97         O  0.50424486  0.98163982  0.28426714    -0.70400
O98         O  0.50373990  0.03286414  0.21973584    -0.61600
O99         O  0.50305007  0.03066378  0.28718411    -0.74100
O100        O  0.50450152  0.98371794  0.21595059    -0.72900
Cu101      Cu  0.44754742  0.96776874  0.25128419     1.04600
Cu102      Cu  0.50577789  0.00851877  0.25180361     1.04300
C103        C  0.47735126  0.95731847  0.20446297     0.93400
C104        C  0.47556424  0.01871559  0.29843230     0.92500
C105        C  0.47661256  0.02219598  0.20910724     0.84700
C106        C  0.47710425  0.95449201  0.29431466     0.90900
O107        O  0.03689466  0.53909612  0.28587708    -0.72800
O108        O  0.97827453  0.52697418  0.21911693    -0.73800
O109        O  0.97907466  0.52694168  0.28750896    -0.62400
O110        O  0.03630243  0.53915153  0.21845499    -0.70800
O111        O  0.00571657  0.48584002  0.21762594    -0.70400
O112        O  0.94823756  0.47358146  0.28608949    -0.61600
O113        O  0.94774898  0.47368554  0.21843544    -0.74100
O114        O  0.00586752  0.48566406  0.28557421    -0.72900
Cu115      Cu  0.00863783  0.53489559  0.25271298     1.04600
Cu116      Cu  0.97583527  0.47785449  0.25187184     1.04300
C117        C  0.03048590  0.51419087  0.29637886     0.93400
C118        C  0.95378385  0.49844740  0.20812627     0.93500
C119        C  0.95475602  0.49828231  0.29795333     0.84700
C120        C  0.03036442  0.51450248  0.20745565     0.90900
N121        N  0.45181754  0.56417825  0.04784476    -0.27200
N122        N  0.43414499  0.56719830  0.06439778    -0.35000
C123        C  0.43124292  0.55750632  0.09466443     0.01200
C124        C  0.44824897  0.54827990  0.09721676     0.07200
C125        C  0.46098266  0.55286969  0.06703573    -0.05900
H126        H  0.41718303  0.55653485  0.11320703     0.07900
H127        H  0.47408803  0.54652106  0.05908470     0.09100
Cu128      Cu  0.41321263  0.58201080  0.04328952     0.44200
Cu129      Cu  0.45710903  0.56936532  0.99883414     0.42000
Cu130      Cu  0.40382625  0.57075009  0.45599640     0.43900
N131        N  0.39428633  0.59590602  0.01564514    -0.34500
N132        N  0.39014715  0.59049589  0.48360833    -0.28800
C133        C  0.37651543  0.60116410  0.47315383    -0.04900
C134        C  0.37357398  0.61566017  0.00079632     0.07300
C135        C  0.38425945  0.61005471  0.02652667     0.01100
H136        H  0.36976515  0.59987667  0.44856655     0.08800
H137        H  0.38496087  0.61606052  0.05136252     0.07800
N138        N  0.42578704  0.55677458  0.43402562    -0.36000
N139        N  0.44761861  0.55856267  0.44878762    -0.28200
C140        C  0.45784844  0.54861342  0.42870055    -0.03400
C141        C  0.44142055  0.53965593  0.39989075     0.05200
C142        C  0.42125422  0.54514711  0.40411266     0.03300
H143        H  0.47500090  0.54681733  0.43502929     0.08400
H144        H  0.40458862  0.54110698  0.38667314     0.07200
C145        C  0.31839268  0.62828632  0.01202254     0.80400
N146        N  0.32898185  0.61348751  0.00531039    -0.78000
C147        C  0.36161171  0.63166893  0.00185402     0.82800
N148        N  0.38341339  0.66477400  0.00328979    -0.77900
C149        C  0.37274664  0.67954925  0.00957188     0.82900
N150        N  0.34039741  0.66122333  0.01480275    -0.79600
N151        N  0.12220735  0.53123288  0.44945057    -0.27200
N152        N  0.14997349  0.55166942  0.43330239    -0.35000
C153        C  0.14336851  0.55387625  0.40316415     0.01200
C154        C  0.10970761  0.53378716  0.40028258     0.07200
C155        C  0.09719552  0.51985482  0.43016209    -0.05900
H156        H  0.16171327  0.56865381  0.38478431     0.07900
H157        H  0.07186109  0.50324963  0.43765705     0.09100
Cu158      Cu  0.19504553  0.57467374  0.45339072     0.44200
Cu159      Cu  0.12035644  0.52247400  0.00666323     0.42000
Cu160      Cu  0.19700096  0.58159842  0.04913707     0.43900
N161        N  0.23475444  0.58904380  0.47868326    -0.34500
N162        N  0.23576376  0.59326919  0.02403828    -0.28800
C163        C  0.26614176  0.60995419  0.03532101    -0.04900
C164        C  0.28329677  0.60801587  0.49107000     0.07300
C165        C  0.26467511  0.60477146  0.46687070     0.01100
H166        H  0.27506837  0.62156370  0.05864035     0.08800
H167        H  0.27233875  0.61339940  0.44254205     0.07800
N168        N  0.15145179  0.55572137  0.07025493    -0.36000
N169        N  0.12361281  0.53291491  0.05466882    -0.28200
C170        C  0.09830393  0.51943445  0.07442053    -0.03400
C171        C  0.11057245  0.53429123  0.10412707     0.05200
C172        C  0.14446636  0.55741037  0.10054551     0.03300
H173        H  0.07281909  0.50104512  0.06712724     0.08400
H174        H  0.16274994  0.57415430  0.11866295     0.07200
N175        N  0.47811120  0.87865463  0.04803985    -0.27200
N176        N  0.46042635  0.85156996  0.06486427    -0.35000
C177        C  0.45804262  0.85796529  0.09510030     0.01200
C178        C  0.47523438  0.89076863  0.09747744     0.07200
C179        C  0.48765308  0.90312456  0.06710447    -0.05900
H180        H  0.44418884  0.83988368  0.11378131     0.07900
H181        H  0.50102885  0.92754221  0.05899460     0.09100
Cu182      Cu  0.43882421  0.80702713  0.04492816     0.44200
Cu183      Cu  0.48456176  0.87957567  0.99919581     0.42000
Cu184      Cu  0.43147646  0.80274509  0.45521315     0.43900
N185        N  0.42006593  0.76552179  0.01989605    -0.34500
N186        N  0.41628192  0.76313008  0.48062440    -0.28800
C187        C  0.39943740  0.73298129  0.46910420    -0.04900
C188        C  0.39525490  0.71503017  0.00780630     0.07300
C189        C  0.40334277  0.73588158  0.03235865     0.01100
H190        H  0.39018016  0.72506485  0.44486049     0.08800
H191        H  0.39681854  0.72978595  0.05734469     0.07800
N192        N  0.45479074  0.84684540  0.43355580    -0.36000
N193        N  0.47503261  0.87512398  0.44892243    -0.28200
C194        C  0.48590672  0.89901491  0.42851226    -0.03400
C195        C  0.47152085  0.88503098  0.39890848     0.05200
C196        C  0.45201647  0.85190786  0.40300872     0.03300
H197        H  0.50163821  0.92441332  0.43518336     0.08400
H198        H  0.43653843  0.83274934  0.38525429     0.07200
C199        C  0.08464626  0.54770327  0.32399124    -0.21200
C200        C  0.05138839  0.51841883  0.32158235    -0.09200
C201        C  0.03807202  0.49378892  0.34417315     0.29600
C202        C  0.05747186  0.49886121  0.36920201    -0.21200
C203        C  0.09058298  0.52836517  0.37209850    -0.09200
C204        C  0.10424200  0.55262465  0.34882586     0.29600
F205        F  0.13601310  0.58161588  0.35071620    -0.19800
H206        H  0.09544608  0.56695461  0.30670554     0.18000
H207        H  0.04637270  0.47961323  0.38653779     0.18000
F208        F  0.00592235  0.46533444  0.34294596    -0.19700
C209        C  0.03993472  0.49308065  0.16225535    -0.21200
C210        C  0.05195069  0.51912430  0.18260840    -0.09200
C211        C  0.08444812  0.54946808  0.17861506     0.29600
C212        C  0.10384856  0.55391049  0.15378365    -0.21200
C213        C  0.09118799  0.52832449  0.13238660    -0.09200
C214        C  0.05924667  0.49755330  0.13736170     0.29600
F215        F  0.04662360  0.47164074  0.11834573    -0.19800
H216        H  0.01523406  0.46934643  0.16512906     0.18000
H217        H  0.12842168  0.57771196  0.15070590     0.18000
F218        F  0.09755314  0.57486949  0.19869317    -0.19700
C219        C  0.50480954  0.95685364  0.15766405    -0.21200
C220        C  0.47731954  0.94002694  0.17776366    -0.09200
C221        C  0.44960088  0.90675191  0.17160383     0.29600
C222        C  0.44947222  0.89088323  0.14586178    -0.21200
C223        C  0.47661973  0.90785535  0.12537055    -0.09200
C224        C  0.50442050  0.94105889  0.13151908     0.29600
F225        F  0.53142316  0.95812131  0.11265002    -0.19800
H226        H  0.52645247  0.98245192  0.16184747     0.18000
H227        H  0.42771144  0.86536904  0.14154072     0.18000
F228        F  0.42261167  0.88936325  0.19054430    -0.19700
C229        C  0.50333012  0.93347921  0.36311635    -0.21200
C230        C  0.47370858  0.90169089  0.37042174    -0.09200
C231        C  0.44590419  0.88677753  0.35132561     0.29600
C232        C  0.44754168  0.90385764  0.32618063    -0.21200
C233        C  0.47691484  0.93598970  0.31926452    -0.09200
C234        C  0.50514264  0.95043876  0.33759371     0.29600
F235        F  0.53421064  0.98128100  0.33166978    -0.19800
H236        H  0.52513284  0.94534402  0.37742064     0.18000
H237        H  0.42543091  0.89201497  0.31245551     0.18000
F238        F  0.41660098  0.85638253  0.35800351    -0.19700
C239        C  0.49800356  0.08561581  0.35194302    -0.21200
C240        C  0.47658066  0.06772524  0.37793254    -0.09200
C241        C  0.45349189  0.03334083  0.37651976     0.29600
C242        C  0.45267800  0.01753093  0.35011926    -0.21200
C243        C  0.47507117  0.03558903  0.32494202    -0.09200
C244        C  0.49744209  0.06977137  0.32580970     0.29600
F245        F  0.51861957  0.08786564  0.30125476    -0.19800
H246        H  0.51600273  0.11199650  0.35216114     0.18000
H247        H  0.43511931  0.99112862  0.34976596     0.18000
F248        F  0.43161871  0.01486014  0.40049409    -0.19700
C249        C  0.45077960  0.02533439  0.16318142    -0.21200
C250        C  0.47713576  0.04116065  0.18464748    -0.09200
C251        C  0.50473109  0.07487722  0.18127698     0.29600
C252        C  0.50635998  0.09196388  0.15613436    -0.21200
C253        C  0.48078083  0.07578636  0.13366696    -0.09200
C254        C  0.45261197  0.04236785  0.13776096     0.29600
F255        F  0.42693851  0.02608454  0.11708927    -0.19800
H256        H  0.42917217  0.99942664  0.16537125     0.18000
H257        H  0.52834518  0.11767187  0.15353742     0.18000
F258        F  0.53036654  0.09132305  0.20203534    -0.19700
C259        C  0.90212426  0.46272786  0.32835414    -0.21200
C260        C  0.93428807  0.49337387  0.32441390    -0.09200
C261        C  0.94707585  0.51818473  0.34709517     0.29600
C262        C  0.92847012  0.51177724  0.37386325    -0.21200
C263        C  0.89660239  0.48092630  0.37805675    -0.09200
C264        C  0.88329091  0.45658635  0.35472964     0.29600
F265        F  0.85283439  0.42628771  0.35832510    -0.19800
H266        H  0.89168332  0.44324317  0.31121205     0.18000
H267        H  0.93910692  0.53086809  0.39157363     0.18000
F268        F  0.97804825  0.54811380  0.34428725    -0.19700
C269        C  0.88278698  0.45955606  0.15061669    -0.21200
C270        C  0.89640503  0.48559695  0.12993969    -0.09200
C271        C  0.92772337  0.51636545  0.13665412     0.29600
C272        C  0.94562485  0.52066763  0.16296067    -0.21200
C273        C  0.93291630  0.49420786  0.18264751    -0.09200
C274        C  0.90095054  0.46364474  0.17659749     0.29600
F275        F  0.88738659  0.43758988  0.19544237    -0.19800
H276        H  0.85868762  0.43567281  0.14579444     0.18000
H277        H  0.96999257  0.54447019  0.16716893     0.18000
F278        F  0.94114981  0.54221621  0.11754859    -0.19700
C279        C  0.49726529  0.42065710  0.16966815    -0.21200
C280        C  0.46870327  0.41467496  0.17124217    -0.09200
C281        C  0.44534014  0.39655248  0.14647742     0.29600
C282        C  0.45099594  0.38531998  0.12043048    -0.21200
C283        C  0.47971315  0.39145562  0.11881452    -0.09200
C284        C  0.50270863  0.40907617  0.14395832     0.29600
F285        F  0.53128454  0.41660252  0.14314058    -0.19800
H286        H  0.51566726  0.43464414  0.18835957     0.18000
H287        H  0.43292895  0.37191696  0.10140574     0.18000
F288        F  0.41777504  0.39090959  0.14669344    -0.19700
C289        C  0.50171785  0.42709109  0.32142729    -0.21200
C290        C  0.46975360  0.41254856  0.31372334    -0.09200
C291        C  0.44322053  0.38560630  0.33179333     0.29600
C292        C  0.44892833  0.37440498  0.35755148    -0.21200
C293        C  0.48094685  0.38928111  0.36520629    -0.09200
C294        C  0.50729452  0.41560029  0.34675749     0.29600
F295        F  0.53867777  0.43141064  0.35426502    -0.19800
H296        H  0.52269127  0.44790411  0.30817729     0.18000
H297        H  0.42834891  0.35414488  0.37161815     0.18000
F298        F  0.41193123  0.37067096  0.32528953    -0.19700
C299        C  0.41979447  0.48645952  0.32795586    -0.21200
C300        C  0.45073754  0.49897810  0.31900527    -0.09200
C301        C  0.47856655  0.52539437  0.33671484     0.29600
C302        C  0.47524421  0.53847475  0.36279162    -0.21200
C303        C  0.44437911  0.52605989  0.37152169    -0.09200
C304        C  0.41660590  0.49993389  0.35377916     0.29600
F305        F  0.38621310  0.48650122  0.36221320    -0.19800
H306        H  0.39787412  0.46602459  0.31499354     0.18000
H307        H  0.49700731  0.55857793  0.37619944     0.18000
F308        F  0.50897628  0.53825615  0.32937117    -0.19700
C309        C  0.47975099  0.52554432  0.15652905    -0.21200
C310        C  0.45197669  0.50250188  0.17570842    -0.09200
C311        C  0.42310549  0.49535109  0.16944971     0.29600
C312        C  0.42228145  0.51107257  0.14447236    -0.21200
C313        C  0.44989727  0.53348694  0.12491765    -0.09200
C314        C  0.47868767  0.54064419  0.13123882     0.29600
F315        F  0.50603527  0.56258769  0.11322947    -0.19800
H316        H  0.50222725  0.53146828  0.16067982     0.18000
H317        H  0.39983507  0.50507354  0.13986878     0.18000
F318        F  0.39577504  0.47337885  0.18745826    -0.19700
O319        O  0.50671535  0.52550497  0.71420847    -0.72800
O320        O  0.51712163  0.48166741  0.77879783    -0.73800
O321        O  0.51952207  0.48558836  0.71075950    -0.62400
O322        O  0.50353828  0.52110523  0.78244275    -0.70800
O323        O  0.45017641  0.47694096  0.77954651    -0.70400
O324        O  0.46609329  0.44169602  0.70834392    -0.61600
O325        O  0.46376494  0.43747286  0.77648187    -0.74100
O326        O  0.45314730  0.48164369  0.71185842    -0.72900
Cu327      Cu  0.51357499  0.50500376  0.74667569     1.04600
Cu328      Cu  0.45646423  0.45790276  0.74397306     1.04300
C329        C  0.47839814  0.51047778  0.70258839     0.93400
C330        C  0.49219099  0.45276728  0.78812467     0.92500
C331        C  0.49513199  0.45802407  0.69795409     0.84700
C332        C  0.47425455  0.50452059  0.79240161     0.90900
N333        N  0.86912621  0.46405936  0.95085731    -0.27200
N334        N  0.84131479  0.44401812  0.93451635    -0.35000
C335        C  0.84771818  0.44127824  0.90438288     0.01200
C336        C  0.88123914  0.46072562  0.90164323     0.07200
C337        C  0.89395706  0.47479210  0.93159571    -0.05900
H338        H  0.82936206  0.42669454  0.88573962     0.07900
H339        H  0.91935849  0.49120773  0.93905052     0.09100
Cu340      Cu  0.79637890  0.42243149  0.95413687     0.44200
Cu341      Cu  0.86825978  0.46989808  0.50837350     0.42000
Cu342      Cu  0.79119787  0.41583291  0.55193845     0.43900
N343        N  0.75577476  0.40667550  0.97915568    -0.34500
N344        N  0.75121855  0.39935432  0.52464760    -0.28800
C345        C  0.72020155  0.38166817  0.53467119    -0.04900
C346        C  0.70556229  0.38331736  0.99215132     0.07300
C347        C  0.72522429  0.38874066  0.96757979     0.01100
H348        H  0.71145913  0.37227601  0.55864543     0.08800
H349        H  0.71761467  0.37927735  0.94336792     0.07800
N350        N  0.83689537  0.44135609  0.57299468    -0.36000
N351        N  0.86479248  0.46229933  0.55703829    -0.28200
C352        C  0.89001384  0.47538341  0.57685071    -0.03400
C353        C  0.87757524  0.46194171  0.60677026     0.05200
C354        C  0.84375811  0.44024187  0.60349407     0.03300
H355        H  0.91543423  0.49214716  0.56954836     0.08400
H356        H  0.82551654  0.42457228  0.62180530     0.07200
N357        N  0.50973391  0.39090370  0.54021885    -0.27200
N358        N  0.53675972  0.40051907  0.55269097    -0.35000
C359        C  0.54142915  0.41308451  0.58208780     0.01200
C360        C  0.51598732  0.41103442  0.58843485     0.07200
C361        C  0.49630857  0.39667494  0.56140388    -0.05900
H362        H  0.56173382  0.42280386  0.59773304     0.07900
H363        H  0.47455192  0.39197636  0.55692907     0.09100
Cu364      Cu  0.56539242  0.39517171  0.52917218     0.44200
Cu365      Cu  0.49440163  0.37450333  0.49347158     0.42000
Cu366      Cu  0.55777136  0.38443158  0.95345045     0.43900
N367        N  0.58374202  0.37964696  0.50252038    -0.34500
N368        N  0.57784350  0.37243508  0.98265073    -0.28800
C369        C  0.59921616  0.37020800  0.97418650    -0.04900
C370        C  0.60595785  0.36082788  0.48910591     0.07300
C371        C  0.60376360  0.37628996  0.51285680     0.01100
H372        H  0.60952095  0.37516752  0.95049548     0.08800
H373        H  0.61416787  0.38263812  0.53666493     0.07800
N374        N  0.52971742  0.38989196  0.92921404    -0.36000
N375        N  0.50463382  0.38378536  0.94233282    -0.28200
C376        C  0.49161743  0.38954506  0.92081014    -0.03400
C377        C  0.50955829  0.40022212  0.89286875     0.05200
C378        C  0.53357592  0.40019279  0.89900881     0.03300
H379        H  0.47172827  0.38784349  0.92573934     0.08400
H380        H  0.55267612  0.40749363  0.88289286     0.07200
C381        C  0.61467597  0.30280706  0.49802737     0.80400
N382        N  0.64654476  0.32303375  0.50730427    -0.78000
C383        C  0.66630271  0.35585411  0.50724327     0.82800
N384        N  0.65343578  0.36834773  0.50022142    -0.77900
C385        C  0.62122463  0.34810581  0.49197200     0.82900
N386        N  0.60437359  0.31638622  0.00524265    -0.79600
N387        N  0.49912849  0.10607688  0.55487709    -0.27200
N388        N  0.52150744  0.13470493  0.56920493    -0.35000
C389        C  0.52419100  0.12981289  0.59994146     0.01200
C390        C  0.50231707  0.09640135  0.60513715     0.07200
C391        C  0.48705103  0.08228268  0.57584137    -0.05900
H392        H  0.54119605  0.14916533  0.61701984     0.07900
H393        H  0.46963736  0.05668492  0.56953163     0.09100
Cu394      Cu  0.54772012  0.17848647  0.54502046     0.44200
Cu395      Cu  0.48999003  0.10343407  0.00480269     0.42000
Cu396      Cu  0.55961640  0.17976833  0.96812798     0.43900
N397        N  0.56682024  0.21768570  0.51573694    -0.34500
N398        N  0.57779355  0.22110538  0.99304123    -0.28800
C399        C  0.59903337  0.25190619  0.98216084    -0.04900
C400        C  0.59330764  0.26736720  0.49887188     0.07300
C401        C  0.58947412  0.24944544  0.52407795     0.01100
H402        H  0.61097573  0.25940909  0.95906799     0.08800
H403        H  0.60148956  0.25870871  0.54719698     0.07800
N404        N  0.53087375  0.13483558  0.94530755    -0.36000
N405        N  0.50477697  0.10711343  0.95843646    -0.28200
C406        C  0.49170578  0.08245540  0.93783476    -0.03400
C407        C  0.51035892  0.09523484  0.91012530     0.05200
C408        C  0.53501951  0.12858661  0.91584405     0.03300
H409        H  0.47105220  0.05710128  0.94340400     0.08400
H410        H  0.55470294  0.14707027  0.89988595     0.07200
O411        O  0.46083280  0.94652770  0.71785780    -0.72800
O412        O  0.46901905  0.99898724  0.78977927    -0.73800
O413        O  0.46610881  0.99986033  0.72164606    -0.62400
O414        O  0.46383220  0.94584716  0.78532672    -0.70800
O415        O  0.51814794  0.98088672  0.78332684    -0.70400
O416        O  0.52041553  0.03479971  0.71986304    -0.61600
O417        O  0.52324483  0.03374238  0.78730383    -0.74100
O418        O  0.51508180  0.98146885  0.71553285    -0.72900
Cu419      Cu  0.46304383  0.97163287  0.75371775     1.04600
Cu420      Cu  0.52108165  0.00891655  0.75138231     1.04300
C421        C  0.48672025  0.95558453  0.70544262     0.93400
C422        C  0.49744437  0.02452782  0.80013119     0.92500
C423        C  0.49367601  0.02586344  0.71060921     0.84700
C424        C  0.49068772  0.95497999  0.79454632     0.90900
O425        O  0.04185951  0.52144453  0.78525976    -0.72800
O426        O  0.98375177  0.50864416  0.71735841    -0.73800
O427        O  0.98394078  0.50901926  0.78537905    -0.62400
O428        O  0.04193051  0.52098038  0.71752452    -0.70800
O429        O  0.01128231  0.46763846  0.71742993    -0.70400
O430        O  0.95301703  0.45563848  0.78479886    -0.61600
O431        O  0.95334546  0.45540618  0.71727059    -0.74100
O432        O  0.01084694  0.46802301  0.78584399    -0.72900
Cu433      Cu  0.01394046  0.51687957  0.75132160     1.04600
Cu434      Cu  0.98115155  0.45984696  0.75127767     1.04300
C435        C  0.03515266  0.49666258  0.79670447     0.93400
C436        C  0.95909257  0.47997263  0.70681823     0.93500
C437        C  0.95940350  0.48048680  0.79592366     0.84700
C438        C  0.03571830  0.49612409  0.70672659     0.90900
N439        N  0.45982339  0.57174264  0.54626813    -0.27200
N440        N  0.44294457  0.57562738  0.56311587    -0.35000
C441        C  0.44421547  0.57062628  0.59423366     0.01200
C442        C  0.46318165  0.56367698  0.59708786     0.07200
C443        C  0.47266858  0.56461377  0.56617700    -0.05900
H444        H  0.43153355  0.57114112  0.61325126     0.07900
H445        H  0.48595250  0.55839102  0.55848637     0.09100
Cu446      Cu  0.41769442  0.58573963  0.54225718     0.44200
Cu447      Cu  0.45969924  0.57036142  0.49674953     0.42000
Cu448      Cu  0.40526939  0.57414551  0.95563704     0.43900
N449        N  0.39609108  0.59672695  0.51467971    -0.34500
N450        N  0.39061408  0.59251751  0.98413401    -0.28800
C451        C  0.37790727  0.60432438  0.97426259    -0.04900
C452        C  0.37420162  0.61501850  0.49874940     0.07300
C453        C  0.38685577  0.61187555  0.52465220     0.01100
H454        H  0.37284075  0.60518730  0.94958482     0.08800
H455        H  0.38942479  0.62019956  0.54892109     0.07800
N456        N  0.42853337  0.56136719  0.93421880    -0.36000
N457        N  0.44901745  0.56185983  0.95013308    -0.28200
C458        C  0.46123843  0.55389840  0.93025866    -0.03400
C459        C  0.44765764  0.54768826  0.90027970     0.05200
C460        C  0.42689543  0.55254654  0.90361675     0.03300
H461        H  0.47802647  0.55183362  0.93737350     0.08400
H462        H  0.41209406  0.55033075  0.88507316     0.07200
C463        C  0.31839543  0.62709371  0.49033120     0.80400
N464        N  0.32941703  0.61248411  0.49476428    -0.78000
C465        C  0.36210261  0.63090206  0.49804409     0.82800
N466        N  0.38361700  0.66404781  0.49837040    -0.77900
C467        C  0.37254808  0.67858971  0.49331996     0.82900
N468        N  0.34006039  0.66002647  0.48869764    -0.79600
N469        N  0.12212402  0.52211426  0.95743766    -0.27200
N470        N  0.14949906  0.53737843  0.94131602    -0.35000
C471        C  0.14339513  0.53603541  0.90986980     0.01200
C472        C  0.11040442  0.51876881  0.90622573     0.07200
C473        C  0.09775097  0.51025618  0.93690698    -0.05900
H474        H  0.16160309  0.54704080  0.89124943     0.07900
H475        H  0.07306821  0.49781793  0.94394774     0.09100
Cu476      Cu  0.19338638  0.56027413  0.96443316     0.44200
Cu477      Cu  0.11932351  0.52094274  0.49739728     0.42000
Cu478      Cu  0.19422230  0.56130037  0.53939866     0.43900
N479        N  0.23349628  0.58330156  0.99446817    -0.34500
N480        N  0.23405210  0.58301225  0.50939153    -0.28800
C481        C  0.26334724  0.59423840  0.51772661    -0.04900
C482        C  0.28331739  0.60956535  0.01212547     0.07300
C483        C  0.26202052  0.59261317  0.98655799     0.01100
H484        H  0.27002512  0.59358048  0.54170386     0.08800
H485        H  0.26741660  0.58884124  0.96329900     0.07800
N486        N  0.14982125  0.53640587  0.56247885    -0.36000
N487        N  0.12204727  0.52012332  0.54659115    -0.28200
C488        C  0.09755549  0.50685972  0.56747336    -0.03400
C489        C  0.11046228  0.51538164  0.59811243     0.05200
C490        C  0.14377466  0.53434432  0.59405602     0.03300
H491        H  0.07255063  0.49370913  0.56071087     0.08400
H492        H  0.16235774  0.54630743  0.61264305     0.07200
N493        N  0.47828456  0.87477479  0.54709596    -0.27200
N494        N  0.46222992  0.84727869  0.56290111    -0.35000
C495        C  0.46035714  0.85239403  0.59397471     0.01200
C496        C  0.47654673  0.88478966  0.59781692     0.07200
C497        C  0.48753672  0.89816588  0.56763543    -0.05900
H498        H  0.44792298  0.83388909  0.61229553     0.07900
H499        H  0.49992874  0.92266175  0.56081337     0.09100
Cu500      Cu  0.44260790  0.80398435  0.54084381     0.44200
Cu501      Cu  0.48294039  0.87892272  0.49780459     0.42000
Cu502      Cu  0.44271383  0.80286346  0.95784542     0.43900
N503        N  0.42191902  0.76395029  0.51150806    -0.34500
N504        N  0.42220712  0.76408634  0.98850140    -0.28800
C505        C  0.40728378  0.73352186  0.98029860    -0.04900
C506        C  0.39502137  0.71415789  0.49363903     0.07300
C507        C  0.40931467  0.73441109  0.52026825     0.01100
H508        H  0.40393947  0.72499106  0.95596355     0.08800
H509        H  0.40862708  0.72758135  0.54459412     0.07800
N510        N  0.46503790  0.84622530  0.93457532    -0.36000
N511        N  0.48138493  0.87417904  0.94999212    -0.28200
C512        C  0.49213828  0.89745720  0.92890552    -0.03400
C513        C  0.48182654  0.88363138  0.89866872     0.05200
C514        C  0.46463298  0.85102091  0.90310784     0.03300
H515        H  0.50482503  0.92223828  0.93540248     0.08400
H516        H  0.45218361  0.83203349  0.88497500     0.07200
C517        C  0.08843711  0.53038785  0.82614072    -0.21200
C518        C  0.05514327  0.50121600  0.82331098    -0.09200
C519        C  0.04073593  0.47739219  0.84715662     0.29600
C520        C  0.05914270  0.48313543  0.87369247    -0.21200
C521        C  0.09233524  0.51239465  0.87671072    -0.09200
C522        C  0.10704078  0.53587259  0.85243415     0.29600
F523        F  0.13882078  0.56478852  0.85487273    -0.19800
H524        H  0.09997581  0.54911503  0.80811572     0.18000
H525        H  0.04731129  0.46475483  0.89211970     0.18000
F526        F  0.00844813  0.44923914  0.84568368    -0.19700
C527        C  0.04209276  0.47485928  0.65861083    -0.21200
C528        C  0.05623993  0.50015909  0.68095181    -0.09200
C529        C  0.08940703  0.52951134  0.67737694     0.29600
C530        C  0.10754044  0.53374974  0.65119586    -0.21200
C531        C  0.09273000  0.50910257  0.62789879    -0.09200
C532        C  0.06000640  0.47932799  0.63216803     0.29600
F533        F  0.04523489  0.45458542  0.61064949    -0.19800
H534        H  0.01669659  0.45197430  0.66095023     0.18000
H535        H  0.13273594  0.55683246  0.64842030     0.18000
F536        F  0.10423725  0.55416852  0.69901669    -0.19700
C537        C  0.51170744  0.95031196  0.66021028    -0.21200
C538        C  0.48403949  0.93629406  0.67905760    -0.09200
C539        C  0.45418150  0.90412953  0.67208728     0.29600
C540        C  0.45216172  0.88685910  0.64639138    -0.21200
C541        C  0.47957212  0.90153583  0.62692819    -0.09200
C542        C  0.50947914  0.93326410  0.63427129     0.29600
F543        F  0.53665414  0.94773672  0.61641640    -0.19800
H544        H  0.53505576  0.97486012  0.66510598     0.18000
H545        H  0.42887716  0.86241836  0.64101105     0.18000
F546        F  0.42691606  0.88936444  0.68991935    -0.19700
C547        C  0.51402962  0.93335556  0.86513345    -0.21200
C548        C  0.48542276  0.90023964  0.86936564    -0.09200
C549        C  0.45951552  0.88460103  0.84727623     0.29600
C550        C  0.46170676  0.90239700  0.82247652    -0.21200
C551        C  0.48991035  0.93581356  0.81892552    -0.09200
C552        C  0.51646888  0.95099101  0.84005593     0.29600
F553        F  0.54405730  0.98328666  0.83767415    -0.19800
H554        H  0.53434137  0.94586893  0.88183367     0.18000
H555        H  0.44100304  0.89014737  0.80635978     0.18000
F556        F  0.43128484  0.85275384  0.85078320    -0.19700
C557        C  0.53359260  0.09139278  0.86179829    -0.21200
C558        C  0.50639845  0.07720023  0.88149807    -0.09200
C559        C  0.47596563  0.04584978  0.87360222     0.29600
C560        C  0.47316041  0.02914946  0.84685620    -0.21200
C561        C  0.50052170  0.04317491  0.82750068    -0.09200
C562        C  0.53081459  0.07466971  0.83516001     0.29600
F563        F  0.55786171  0.08951543  0.81693115    -0.19800
H564        H  0.55735537  0.11533649  0.86723518     0.18000
H565        H  0.44953824  0.00498371  0.84152981     0.18000
F566        F  0.44868336  0.03137914  0.89122728    -0.19700
C567        C  0.46780810  0.02958870  0.66541978    -0.21200
C568        C  0.49464412  0.04510588  0.68609379    -0.09200
C569        C  0.52284680  0.07847410  0.68177071     0.29600
C570        C  0.52466805  0.09535654  0.65616566    -0.21200
C571        C  0.49856664  0.07931129  0.63428098    -0.09200
C572        C  0.46966172  0.04636841  0.63973715     0.29600
F573        F  0.44311327  0.03015991  0.62029287    -0.19800
H574        H  0.44565716  0.00399218  0.66844786     0.18000
H575        H  0.54709484  0.12074941  0.65285935     0.18000
F576        F  0.54878259  0.09474340  0.70211063    -0.19700
C577        C  0.90630217  0.44566501  0.82580909    -0.21200
C578        C  0.93858388  0.47610891  0.82159666    -0.09200
C579        C  0.95110440  0.50171507  0.84301643     0.29600
C580        C  0.93207534  0.49648870  0.86867346    -0.21200
C581        C  0.90003528  0.46595354  0.87321031    -0.09200
C582        C  0.88702067  0.44063003  0.85117481     0.29600
F583        F  0.85630953  0.41062840  0.85491953    -0.19800
H584        H  0.89602513  0.42555594  0.80954577     0.18000
H585        H  0.94254236  0.51647437  0.88518539     0.18000
F586        F  0.98217822  0.53146813  0.83998108    -0.19700
C587        C  0.88625545  0.43995128  0.65149791    -0.21200
C588        C  0.89673272  0.46689812  0.63447519    -0.09200
C589        C  0.92698486  0.49823367  0.64232476     0.29600
C590        C  0.94681446  0.50234733  0.66624542    -0.21200
C591        C  0.93709040  0.47526004  0.68245912    -0.09200
C592        C  0.90630485  0.44393645  0.67507183     0.29600
F593        F  0.89557264  0.41704943  0.69033967    -0.19800
H594        H  0.86309609  0.41561879  0.64565286     0.18000
H595        H  0.97012478  0.52674048  0.67159836     0.18000
F596        F  0.93735915  0.52490211  0.62687027    -0.19700
C597        C  0.53233346  0.46342862  0.65867542    -0.21200
C598        C  0.50046527  0.44521521  0.67063187    -0.09200
C599        C  0.47392122  0.41528539  0.65553977     0.29600
C600        C  0.47927462  0.40437587  0.62898568    -0.21200
C601        C  0.51108044  0.42262449  0.61715411    -0.09200
C602        C  0.53765318  0.45226030  0.63230924     0.29600
F603        F  0.56860561  0.47117103  0.62080212    -0.19800
H604        H  0.55322918  0.48662251  0.66947785     0.18000
H605        H  0.45845777  0.38143570  0.61771543     0.18000
F606        F  0.44267429  0.39653322  0.66613055    -0.19700
C607        C  0.52818565  0.45399260  0.82430858    -0.21200
C608        C  0.49646519  0.43755757  0.81311860    -0.09200
C609        C  0.46928921  0.40761461  0.82724366     0.29600
C610        C  0.47386333  0.39534286  0.85276059    -0.21200
C611        C  0.50549254  0.41217487  0.86422696    -0.09200
C612        C  0.53272040  0.44141214  0.84948580     0.29600
F613        F  0.56358331  0.45882775  0.86058320    -0.19800
H614        H  0.54959204  0.47704703  0.81403752     0.18000
H615        H  0.45259815  0.37271530  0.86378866     0.18000
F616        F  0.43821092  0.39052531  0.81710386    -0.19700
C617        C  0.43583477  0.50302624  0.82473292    -0.21200
C618        C  0.46791128  0.51688702  0.81912528    -0.09200
C619        C  0.49327573  0.54172064  0.83989924     0.29600
C620        C  0.48640747  0.55175484  0.86590999    -0.21200
C621        C  0.45438974  0.53781488  0.87151258    -0.09200
C622        C  0.42910770  0.51348413  0.85050494     0.29600
F623        F  0.39768425  0.49873816  0.85571722    -0.19800
H624        H  0.41574929  0.48379495  0.80921739     0.18000
H625        H  0.50629698  0.57056859  0.88185807     0.18000
F626        F  0.52455869  0.55569603  0.83575187    -0.19700
C627        C  0.50159063  0.54872326  0.65675516    -0.21200
C628        C  0.47513843  0.52618869  0.67745371    -0.09200
C629        C  0.44549790  0.51792404  0.67282277     0.29600
C630        C  0.44223273  0.53135938  0.64741183    -0.21200
C631        C  0.46817333  0.55263090  0.62584150    -0.09200
C632        C  0.49807670  0.56157690  0.63096124     0.29600
F633        F  0.52391134  0.58271688  0.61102010    -0.19800
H634        H  0.52464407  0.55553470  0.65986681     0.18000
H635        H  0.41903593  0.52415411  0.64388736     0.18000
F636        F  0.41963158  0.49677820  0.69272349    -0.19700
loop_ 
_geom_bond_atom_site_label_1 
_geom_bond_atom_site_label_2 
_geom_bond_distance 
_geom_bond_site_symmetry_2 
_ccdc_geom_bond_type 
O1           Cu9   1.997       .  S
O1           C11   1.277       .  A
O2           Cu9   1.992       .  S
O2           C12   1.276       .  A
O3           Cu9   2.007       .  S
O3           C13   1.278       .  A
O4           Cu9   2.013       .  S
O4           C14   1.278       .  A
O5          Cu10   2.020       .  S
O5           C14   1.280       .  A
O6          Cu10   2.026       .  S
O6           C13   1.280       .  A
O7          Cu10   2.032       .  S
O7           C12   1.281       .  A
O8          Cu10   2.023       .  S
O8           C11   1.280       .  A
Cu9         Cu10   2.369       .  S
C11         C310   1.482       .  S
C12         C290   1.487       .  S
C13         C280   1.482       .  S
C14         C300   1.489       .  S
N15          N16   1.320       .  A
N15          C19   1.343       .  A
N15        Cu341   2.062       .  S
N16          C17   1.346       .  A
N16         Cu22   2.077       .  S
C17          C18   1.386       .  A
C17          H20   1.082       .  S
C18         C263   1.476       .  S
C18          C19   1.382       .  A
C19          H21   1.081       .  S
Cu22         N25   2.078       .  S
Cu23         N33   2.069   1_556  S
Cu23        N333   2.069       .  S
Cu24         N26   2.083       .  S
Cu24         N32   2.082       .  S
N25         N344   1.324       .  A
N25          C29   1.345       .  A
N26         N343   1.324   1_554  A
N26          C27   1.346       .  A
C27         C346   1.383   1_554  A
C27          H30   1.082       .  S
C28         C383   1.466       .  S
C28          C29   1.380       .  A
C28         C345   1.383       .  A
C29          H31   1.082       .  S
N32          N33   1.322       .  A
N32          C36   1.348       .  A
N33          C34   1.343       .  A
C34          C35   1.382       .  A
C34          H37   1.081       .  S
C35         C270   1.476       .  S
C35          C36   1.386       .  A
C36          H38   1.082       .  S
N39          N40   1.321       .  A
N39          C43   1.346       .  A
N39         Cu47   2.070   1_554  S
N40          C41   1.346       .  A
N40         Cu46   2.082       .  S
C41          C42   1.389       .  A
C41          H44   1.082       .  S
C42         C283   1.487       .  S
C42          C43   1.386       .  A
C43          H45   1.081       .  S
Cu46         N49   2.082       .  S
Cu47        N375   2.069       .  S
Cu48         N50   2.082       .  S
Cu48         N56   2.082       .  S
N49         N368   1.324   1_554  A
N49          C53   1.346       .  A
N50         N367   1.323       .  A
N50          C51   1.347       .  A
C51         C370   1.383       .  A
C51          H54   1.082       .  S
C52          C67   1.468       .  S
C52          C53   1.382       .  A
C52         C369   1.383   1_554  A
C53          H55   1.082       .  S
N56          N57   1.322       .  A
N56          C60   1.346       .  A
N57          C58   1.346       .  A
N57        Cu365   2.072       .  S
C58          C59   1.383       .  A
C58          H61   1.081       .  S
C59         C293   1.478       .  S
C59          C60   1.386       .  A
C60          H62   1.082       .  S
C63          C82   1.463       .  S
C63          N64   1.356   1_554  A
C63         N386   1.357       .  A
N64          C65   1.357       .  A
C65         C346   1.465       .  S
C65          N66   1.361       .  A
N66          C67   1.361   1_556  A
C67         N386   1.358       .  A
N68         C381   1.358       .  A
N68         C385   1.359       .  A
N69          N70   1.321       .  A
N69          C73   1.342       .  A
N69        Cu395   2.060       .  S
N70          C71   1.346       .  A
N70         Cu76   2.076       .  S
C71          C72   1.388       .  A
C71          H74   1.082       .  S
C72         C253   1.479       .  S
C72          C73   1.383       .  A
C73          H75   1.081       .  S
Cu76         N79   2.076       .  S
Cu77         N87   2.060       .  S
Cu77        N387   2.061       .  S
Cu78         N80   2.081       .  S
Cu78         N86   2.080       .  S
N79         N398   1.323   1_554  A
N79          C83   1.345       .  A
N80         N397   1.325       .  A
N80          C81   1.347       .  A
C81         C400   1.382       .  A
C81          H84   1.082       .  S
C82          C83   1.381       .  A
C82         C399   1.380   1_554  A
C83          H85   1.082       .  S
N86          N87   1.320       .  A
N86          C90   1.345       .  A
N87          C88   1.343       .  A
C88          C89   1.386       .  A
C88          H91   1.080       .  S
C89         C240   1.486       .  S
C89          C90   1.390       .  A
C90          H92   1.082       .  S
O93        Cu101   2.002       .  S
O93         C103   1.277       .  A
O94        Cu101   2.008       .  S
O94         C104   1.277   1_565  A
O95        Cu101   2.016       .  S
O95         C105   1.279   1_565  A
O96        Cu101   2.006       .  S
O96         C106   1.279       .  A
O97        Cu102   2.010   1_565  S
O97         C106   1.278       .  A
O98        Cu102   1.996       .  S
O98         C105   1.276       .  A
O99        Cu102   2.011       .  S
O99         C104   1.278       .  A
O100       Cu102   2.018   1_565  S
O100        C103   1.279       .  A
Cu101      Cu102   2.371   1_565  S
C103        C220   1.482       .  S
C104        C243   1.474       .  S
C105        C250   1.478       .  S
C106        C233   1.483       .  S
O107       Cu115   2.004       .  S
O107        C117   1.277       .  A
O108       Cu115   2.015   1_655  S
O108        C118   1.279       .  A
O109       Cu115   2.015   1_655  S
O109        C119   1.279       .  A
O110       Cu115   2.006       .  S
O110        C120   1.278       .  A
O111       Cu116   2.010   1_455  S
O111        C120   1.278       .  A
O112       Cu116   2.002       .  S
O112        C119   1.278       .  A
O113       Cu116   2.006       .  S
O113        C118   1.277       .  A
O114       Cu116   2.007   1_455  S
O114        C117   1.278       .  A
Cu115      Cu116   2.372   1_455  S
C117        C200   1.475       .  S
C118        C273   1.482       .  S
C119        C260   1.480       .  S
C120        C210   1.480       .  S
N121        N122   1.320       .  A
N121        C125   1.343       .  A
N121       Cu129   2.062   1_554  S
N122        C123   1.347       .  A
N122       Cu128   2.075       .  S
C123        C124   1.386       .  A
C123        H126   1.083       .  S
C124        C313   1.478       .  S
C124        C125   1.384       .  A
C125        H127   1.078       .  S
Cu128       N131   2.077       .  S
Cu129       N457   2.062       .  S
Cu130       N132   2.094       .  S
Cu130       N138   2.093       .  S
N131        N450   1.325   1_554  A
N131        C135   1.345       .  A
N132        N449   1.324       .  A
N132        C133   1.347       .  A
C133        C452   1.383       .  A
C133        H136   1.081       .  S
C134        C147   1.467       .  S
C134        C135   1.379       .  A
C134        C451   1.383   1_554  A
C135        H137   1.082       .  S
N138        N139   1.322       .  A
N138        C142   1.349       .  A
N139        C140   1.344       .  A
N139       Cu447   2.070       .  S
C140        C141   1.383       .  A
C140        H143   1.079       .  S
C141        C303   1.483       .  S
C141        C142   1.389       .  A
C142        H144   1.084       .  S
C145        C482   1.462       .  S
C145        N146   1.359       .  A
C145        N150   1.355       .  A
N146        C147   1.360       .  A
C147        N148   1.360       .  A
N148        C149   1.359       .  A
C149        C188   1.462       .  S
C149        N150   1.355       .  A
N151        N152   1.320       .  A
N151        C155   1.341       .  A
N151       Cu477   2.065       .  S
N152        C153   1.346       .  A
N152       Cu158   2.070       .  S
C153        C154   1.388       .  A
C153        H156   1.080       .  S
C154        C203   1.481       .  S
C154        C155   1.385       .  A
C155        H157   1.080       .  S
Cu158       N161   2.071       .  S
Cu159       N169   2.059       .  S
Cu159       N469   2.059   1_554  S
Cu160       N162   2.080       .  S
Cu160       N168   2.079       .  S
N161        N480   1.324       .  A
N161        C165   1.345       .  A
N162        N479   1.324   1_554  A
N162        C163   1.346       .  A
C163        C482   1.382       .  A
C163        H166   1.082       .  S
C164        C463   1.460       .  S
C164        C165   1.379       .  A
C164        C481   1.380       .  A
C165        H167   1.082       .  S
N168        N169   1.321       .  A
N168        C172   1.347       .  A
N169        C170   1.340       .  A
C170        C171   1.383       .  A
C170        H173   1.082       .  S
C171        C213   1.481       .  S
C171        C172   1.389       .  A
C172        H174   1.085       .  S
N175        N176   1.320       .  A
N175        C179   1.345       .  A
N175       Cu183   2.066   1_554  S
N176        C177   1.344       .  A
N176       Cu182   2.072       .  S
C177        C178   1.386       .  A
C177        H180   1.082       .  S
C178        C223   1.480       .  S
C178        C179   1.385       .  A
C179        H181   1.080       .  S
Cu182       N185   2.072       .  S
Cu183       N511   2.066       .  S
Cu184       N186   2.072       .  S
Cu184       N192   2.072       .  S
N185        N504   1.324   1_554  A
N185        C189   1.345       .  A
N186        N503   1.323       .  A
N186        C187   1.344       .  A
C187        C506   1.381       .  A
C187        H190   1.083       .  S
C188        C189   1.379       .  A
C188        C505   1.382   1_554  A
C189        H191   1.082       .  S
N192        N193   1.321       .  A
N192        C196   1.344       .  A
N193        C194   1.345       .  A
N193       Cu501   2.069       .  S
C194        C195   1.385       .  A
C194        H197   1.082       .  S
C195        C230   1.478       .  S
C195        C196   1.385       .  A
C196        H198   1.083       .  S
C199        C200   1.404       .  A
C199        C204   1.399       .  A
C199        H206   1.084       .  S
C200        C201   1.405       .  A
C201        C202   1.395       .  A
C201        F208   1.358       .  S
C202        C203   1.405       .  A
C202        H207   1.083       .  S
C203        C204   1.408       .  A
C204        F205   1.357       .  S
C209        C210   1.404       .  A
C209        C214   1.397       .  A
C209        H216   1.083       .  S
C210        C211   1.409       .  A
C211        C212   1.399       .  A
C211        F218   1.357       .  S
C212        C213   1.404       .  A
C212        H217   1.082       .  S
C213        C214   1.409       .  A
C214        F215   1.357       .  S
C219        C220   1.406       .  A
C219        C224   1.400       .  A
C219        H226   1.083       .  S
C220        C221   1.409       .  A
C221        C222   1.397       .  A
C221        F228   1.357       .  S
C222        C223   1.403       .  A
C222        H227   1.083       .  S
C223        C224   1.407       .  A
C224        F225   1.357       .  S
C229        C230   1.404       .  A
C229        C234   1.400       .  A
C229        H236   1.085       .  S
C230        C231   1.406       .  A
C231        C232   1.396       .  A
C231        F238   1.357       .  S
C232        C233   1.405       .  A
C232        H237   1.085       .  S
C233        C234   1.410       .  A
C234        F235   1.357       .  S
C239        C240   1.407       .  A
C239        C244   1.398       .  A
C239        H246   1.081       .  S
C240        C241   1.411       .  A
C241        C242   1.399       .  A
C241        F248   1.357       .  S
C242        C243   1.402       .  A
C242        H247   1.083   1_545  S
C243        C244   1.404       .  A
C244        F245   1.357       .  S
C249        C250   1.404       .  A
C249        C254   1.399       .  A
C249        H256   1.084   1_545  S
C250        C251   1.408       .  A
C251        C252   1.396       .  A
C251        F258   1.358       .  S
C252        C253   1.403       .  A
C252        H257   1.084       .  S
C253        C254   1.408       .  A
C254        F255   1.357       .  S
C259        C260   1.406       .  A
C259        C264   1.398       .  A
C259        H266   1.083       .  S
C260        C261   1.408       .  A
C261        C262   1.399       .  A
C261        F268   1.358       .  S
C262        C263   1.404       .  A
C262        H267   1.083       .  S
C263        C264   1.405       .  A
C264        F265   1.357       .  S
C269        C270   1.403       .  A
C269        C274   1.400       .  A
C269        H276   1.082       .  S
C270        C271   1.404       .  A
C271        C272   1.398       .  A
C271        F278   1.357       .  S
C272        C273   1.405       .  A
C272        H277   1.082       .  S
C273        C274   1.410       .  A
C274        F275   1.358       .  S
C279        C280   1.404       .  A
C279        C284   1.398       .  A
C279        H286   1.083       .  S
C280        C281   1.408       .  A
C281        C282   1.403       .  A
C281        F288   1.358       .  S
C282        C283   1.408       .  A
C282        H287   1.083       .  S
C283        C284   1.408       .  A
C284        F285   1.356       .  S
C289        C290   1.408       .  A
C289        C294   1.396       .  A
C289        H296   1.082       .  S
C290        C291   1.410       .  A
C291        C292   1.403       .  A
C291        F298   1.357       .  S
C292        C293   1.404       .  A
C292        H297   1.083       .  S
C293        C294   1.403       .  A
C294        F295   1.358       .  S
C299        C300   1.408       .  A
C299        C304   1.402       .  A
C299        H306   1.084       .  S
C300        C301   1.411       .  A
C301        C302   1.400       .  A
C301        F308   1.357       .  S
C302        C303   1.403       .  A
C302        H307   1.085       .  S
C303        C304   1.406       .  A
C304        F305   1.357       .  S
C309        C310   1.406       .  A
C309        C314   1.395       .  A
C309        H316   1.081       .  S
C310        C311   1.408       .  A
C311        C312   1.402       .  A
C311        F318   1.357       .  S
C312        C313   1.405       .  A
C312        H317   1.080       .  S
C313        C314   1.404       .  A
C314        F315   1.358       .  S
O319       Cu327   2.004       .  S
O319        C329   1.277       .  A
O320       Cu327   2.003       .  S
O320        C330   1.277       .  A
O321       Cu327   2.019       .  S
O321        C331   1.280       .  A
O322       Cu327   2.024       .  S
O322        C332   1.280       .  A
O323       Cu328   2.005       .  S
O323        C332   1.277       .  A
O324       Cu328   2.010       .  S
O324        C331   1.278       .  A
O325       Cu328   2.017       .  S
O325        C330   1.279       .  A
O326       Cu328   2.012       .  S
O326        C329   1.279       .  A
Cu327      Cu328   2.368       .  S
C329        C628   1.478       .  S
C330        C608   1.486       .  S
C331        C598   1.489       .  S
C332        C618   1.486       .  S
N333        N334   1.321       .  A
N333        C337   1.343       .  A
N334        C335   1.346       .  A
N334       Cu340   2.076       .  S
C335        C336   1.386       .  A
C335        H338   1.083       .  S
C336        C581   1.479       .  S
C336        C337   1.384       .  A
C337        H339   1.082       .  S
Cu340       N343   2.077       .  S
Cu341       N351   2.062       .  S
Cu342       N344   2.087       .  S
Cu342       N350   2.086       .  S
N343        C347   1.346       .  A
N344        C345   1.348       .  A
C345        H348   1.082       .  S
C346        C347   1.381       .  A
C347        H349   1.082       .  S
N350        N351   1.322       .  A
N350        C354   1.348       .  A
N351        C352   1.341       .  A
C352        C353   1.380       .  A
C352        H355   1.081       .  S
C353        C588   1.474       .  S
C353        C354   1.387       .  A
C354        H356   1.083       .  S
N357        N358   1.323       .  A
N357        C361   1.345       .  A
N357       Cu365   2.073       .  S
N358        C359   1.348       .  A
N358       Cu364   2.088       .  S
C359        C360   1.387       .  A
C359        H362   1.082       .  S
C360        C601   1.481       .  S
C360        C361   1.383       .  A
C361        H363   1.080       .  S
Cu364       N367   2.088       .  S
Cu366       N368   2.086       .  S
Cu366       N374   2.086       .  S
N367        C371   1.347       .  A
N368        C369   1.348       .  A
C369        H372   1.082       .  S
C370        C385   1.470       .  S
C370        C371   1.384       .  A
C371        H373   1.081       .  S
N374        N375   1.323       .  A
N374        C378   1.347       .  A
N375        C376   1.344       .  A
C376        C377   1.381       .  A
C376        H379   1.081       .  S
C377        C611   1.477       .  S
C377        C378   1.386       .  A
C378        H380   1.082       .  S
C381        C400   1.466       .  S
C381        N382   1.357       .  A
N382        C383   1.357       .  A
C383        N384   1.360       .  A
N384        C385   1.360       .  A
N387        N388   1.320       .  A
N387        C391   1.341       .  A
N388        C389   1.347       .  A
N388       Cu394   2.081       .  S
C389        C390   1.390       .  A
C389        H392   1.081       .  S
C390        C571   1.485       .  S
C390        C391   1.385       .  A
C391        H393   1.080       .  S
Cu394       N397   2.081       .  S
Cu395       N405   2.061   1_554  S
Cu396       N398   2.072       .  S
Cu396       N404   2.073       .  S
N397        C401   1.345       .  A
N398        C399   1.345       .  A
C399        H402   1.082       .  S
C400        C401   1.380       .  A
C401        H403   1.083       .  S
N404        N405   1.320       .  A
N404        C408   1.343       .  A
N405        C406   1.343       .  A
C406        C407   1.386       .  A
C406        H409   1.079       .  S
C407        C558   1.483       .  S
C407        C408   1.388       .  A
C408        H410   1.082       .  S
O411       Cu419   2.007       .  S
O411        C421   1.277       .  A
O412       Cu419   2.012       .  S
O412        C422   1.279   1_565  A
O413       Cu419   2.014       .  S
O413        C423   1.279   1_565  A
O414       Cu419   2.007       .  S
O414        C424   1.278       .  A
O415       Cu420   2.006   1_565  S
O415        C424   1.278       .  A
O416       Cu420   2.005       .  S
O416        C423   1.277       .  A
O417       Cu420   1.999       .  S
O417        C422   1.277       .  A
O418       Cu420   2.009   1_565  S
O418        C421   1.279       .  A
Cu419      Cu420   2.371   1_565  S
C421        C538   1.482       .  S
C422        C561   1.481       .  S
C423        C568   1.479       .  S
C424        C551   1.477       .  S
O425       Cu433   2.004       .  S
O425        C435   1.277       .  A
O426       Cu433   2.012   1_655  S
O426        C436   1.279       .  A
O427       Cu433   2.012   1_655  S
O427        C437   1.279       .  A
O428       Cu433   2.009       .  S
O428        C438   1.278       .  A
O429       Cu434   2.012   1_455  S
O429        C438   1.279       .  A
O430       Cu434   2.004       .  S
O430        C437   1.277       .  A
O431       Cu434   2.005       .  S
O431        C436   1.277       .  A
O432       Cu434   2.012   1_455  S
O432        C435   1.279       .  A
Cu433      Cu434   2.371   1_455  S
C435        C518   1.477       .  S
C436        C591   1.483       .  S
C437        C578   1.480       .  S
C438        C528   1.479       .  S
N439        N440   1.321       .  A
N439        C443   1.344       .  A
N439       Cu447   2.069       .  S
N440        C441   1.346       .  A
N440       Cu446   2.073       .  S
C441        C442   1.385       .  A
C441        H444   1.083       .  S
C442        C631   1.477       .  S
C442        C443   1.384       .  A
C443        H445   1.078       .  S
Cu446       N449   2.074       .  S
Cu448       N450   2.094       .  S
Cu448       N456   2.094       .  S
N449        C453   1.347       .  A
N450        C451   1.349       .  A
C451        H454   1.082       .  S
C452        C465   1.467       .  S
C452        C453   1.380       .  A
C453        H455   1.082       .  S
N456        N457   1.322       .  A
N456        C460   1.350       .  A
N457        C458   1.342       .  A
C458        C459   1.381       .  A
C458        H461   1.079       .  S
C459        C621   1.480       .  S
C459        C460   1.389       .  A
C460        H462   1.084       .  S
C463        N464   1.358       .  A
C463        N468   1.354       .  A
N464        C465   1.359       .  A
C465        N466   1.362       .  A
N466        C467   1.360       .  A
C467        C506   1.464       .  S
C467        N468   1.355       .  A
N469        N470   1.319       .  A
N469        C473   1.342       .  A
N470        C471   1.348       .  A
N470       Cu476   2.074       .  S
C471        C472   1.388       .  A
C471        H474   1.079       .  S
C472        C521   1.478       .  S
C472        C473   1.383       .  A
C473        H475   1.080       .  S
Cu476       N479   2.075       .  S
Cu477       N487   2.065       .  S
Cu478       N480   2.077       .  S
Cu478       N486   2.076       .  S
N479        C483   1.345       .  A
N480        C481   1.345       .  A
C481        H484   1.082       .  S
C482        C483   1.379   1_554  A
C483        H485   1.082       .  S
N486        N487   1.321       .  A
N486        C490   1.347       .  A
N487        C488   1.342       .  A
C488        C489   1.383       .  A
C488        H491   1.082       .  S
C489        C531   1.478       .  S
C489        C490   1.387       .  A
C490        H492   1.084       .  S
N493        N494   1.323       .  A
N493        C497   1.343       .  A
N493       Cu501   2.069       .  S
N494        C495   1.348       .  A
N494       Cu500   2.082       .  S
C495        C496   1.385       .  A
C495        H498   1.082       .  S
C496        C541   1.475       .  S
C496        C497   1.381       .  A
C497        H499   1.080       .  S
Cu500       N503   2.081       .  S
Cu502       N504   2.083       .  S
Cu502       N510   2.082       .  S
N503        C507   1.347       .  A
N504        C505   1.346       .  A
C505        H508   1.082       .  S
C506        C507   1.383       .  A
C507        H509   1.082       .  S
N510        N511   1.322       .  A
N510        C514   1.348       .  A
N511        C512   1.341       .  A
C512        C513   1.381       .  A
C512        H515   1.081       .  S
C513        C548   1.478       .  S
C513        C514   1.388       .  A
C514        H516   1.083       .  S
C517        C518   1.405       .  A
C517        C522   1.400       .  A
C517        H524   1.083       .  S
C518        C519   1.406       .  A
C519        C520   1.397       .  A
C519        F526   1.358       .  S
C520        C521   1.404       .  A
C520        H525   1.083       .  S
C521        C522   1.407       .  A
C522        F523   1.357       .  S
C527        C528   1.404       .  A
C527        C532   1.397       .  A
C527        H534   1.083       .  S
C528        C529   1.408       .  A
C529        C530   1.400       .  A
C529        F536   1.357       .  S
C530        C531   1.404       .  A
C530        H535   1.083       .  S
C531        C532   1.406       .  A
C532        F533   1.357       .  S
C537        C538   1.405       .  A
C537        C542   1.396       .  A
C537        H544   1.083       .  S
C538        C539   1.411       .  A
C539        C540   1.401       .  A
C539        F546   1.358       .  S
C540        C541   1.403       .  A
C540        H545   1.083       .  S
C541        C542   1.404       .  A
C542        F543   1.357       .  S
C547        C548   1.404       .  A
C547        C552   1.396       .  A
C547        H554   1.085       .  S
C548        C549   1.406       .  A
C549        C550   1.399       .  A
C549        F556   1.357       .  S
C550        C551   1.405       .  A
C550        H555   1.084       .  S
C551        C552   1.407       .  A
C552        F553   1.358       .  S
C557        C558   1.405       .  A
C557        C562   1.396       .  A
C557        H564   1.081       .  S
C558        C559   1.409       .  A
C559        C560   1.398       .  A
C559        F566   1.356       .  S
C560        C561   1.405       .  A
C560        H565   1.083       .  S
C561        C562   1.408       .  A
C562        F563   1.357       .  S
C567        C568   1.403       .  A
C567        C572   1.397       .  A
C567        H574   1.084       .  S
C568        C569   1.408       .  A
C569        C570   1.399       .  A
C569        F576   1.357       .  S
C570        C571   1.405       .  A
C570        H575   1.083       .  S
C571        C572   1.410       .  A
C572        F573   1.357       .  S
C577        C578   1.406       .  A
C577        C582   1.400       .  A
C577        H584   1.085       .  S
C578        C579   1.407       .  A
C579        C580   1.396       .  A
C579        F586   1.357       .  S
C580        C581   1.404       .  A
C580        H585   1.085       .  S
C581        C582   1.407       .  A
C582        F583   1.357       .  S
C587        C588   1.401       .  A
C587        C592   1.399       .  A
C587        H594   1.083       .  S
C588        C589   1.405       .  A
C589        C590   1.397       .  A
C589        F596   1.358       .  S
C590        C591   1.406       .  A
C590        H595   1.082       .  S
C591        C592   1.411       .  A
C592        F593   1.357       .  S
C597        C598   1.408       .  A
C597        C602   1.401       .  A
C597        H604   1.082       .  S
C598        C599   1.412       .  A
C599        C600   1.399       .  A
C599        F606   1.357       .  S
C600        C601   1.403       .  A
C600        H605   1.083       .  S
C601        C602   1.406       .  A
C602        F603   1.357       .  S
C607        C608   1.408       .  A
C607        C612   1.398       .  A
C607        H614   1.082       .  S
C608        C609   1.410       .  A
C609        C610   1.399       .  A
C609        F616   1.357       .  S
C610        C611   1.403       .  A
C610        H615   1.083       .  S
C611        C612   1.404       .  A
C612        F613   1.357       .  S
C617        C618   1.409       .  A
C617        C622   1.401       .  A
C617        H624   1.085       .  S
C618        C619   1.408       .  A
C619        C620   1.399       .  A
C619        F626   1.357       .  S
C620        C621   1.404       .  A
C620        H625   1.085       .  S
C621        C622   1.405       .  A
C622        F623   1.357       .  S
C627        C628   1.405       .  A
C627        C632   1.398       .  A
C627        H634   1.081       .  S
C628        C629   1.407       .  A
C629        C630   1.399       .  A
C629        F636   1.357       .  S
C630        C631   1.404       .  A
C630        H635   1.080       .  S
C631        C632   1.405       .  A
C632        F633   1.358       .  S
