geometry optimzed in LAMMPS
_audit_creation_date              2020-12-01 
_audit_creation_method            'lammps2cif' 
_symmetry_space_group_name_H-M    'P1' 
_symmetry_Int_Tables_number       1 
_symmetry_cell_setting            triclinic 
loop_ 
_symmetry_equiv_pos_as_xyz 
  x,y,z 
_cell_length_a                    25.48755908 
_cell_length_b                    25.476426571563476 
_cell_length_c                    77.19894078517338 
_cell_angle_alpha                 89.80706765800358 
_cell_angle_beta                  89.95511060769596 
_cell_angle_gamma                 89.5161497256393 
loop_ 
_atom_site_label 
_atom_site_type_symbol 
_atom_site_fract_x 
_atom_site_fract_y 
_atom_site_fract_z 
_atom_site_charge 
C1          C  0.50412077  0.98700267  0.25069913    -0.02200
C2          C  0.94821429  0.48108201  0.99063071     0.02500
C3          C  0.94685721  0.48367311  0.00893402     0.02500
C4          C  0.99413864  0.48588313  0.01825058    -0.18000
C5          C  0.04275449  0.48436706  0.00984262     0.02500
C6          C  0.04408279  0.48152544  0.99162607     0.02500
C7          C  0.99703546  0.47984274  0.98224498    -0.18000
H8          H  0.99848820  0.47830403  0.96821089     0.04600
H9          H  0.99307416  0.48852671  0.03226760     0.04600
C10         C  0.50950060  0.99805825  0.75006787    -0.02200
C11         C  0.98433432  0.50760889  0.75166390    -0.02200
C12         C  0.46587612  0.94645369  0.00993548     0.02500
C13         C  0.45830917  0.94630879  0.99185043     0.02500
C14         C  0.45498685  0.99427414  0.98294822    -0.18000
C15         C  0.45949420  0.04247821  0.99161331     0.02500
C16         C  0.46434354  0.04255776  0.00989062     0.02500
C17         C  0.46823219  0.99438029  0.01870765    -0.18000
H18         H  0.47424943  0.99410211  0.03261865     0.04600
H19         H  0.45033417  0.99404604  0.96897968     0.04600
N20         N  0.45559673  0.61006987  0.88338968    -0.05900
N21         N  0.43277242  0.63785482  0.89571164    -0.58000
N22         N  0.51974657  0.61190955  0.84590145    -0.05500
N23         N  0.54202489  0.64634641  0.83544015    -0.60100
N24         N  0.46849713  0.61214283  0.84366294    -0.05100
N25         N  0.45513542  0.64668771  0.83155376    -0.58000
N26         N  0.50666711  0.60820010  0.88569788    -0.04800
N27         N  0.51963614  0.63470769  0.89973937    -0.60500
C28         C  0.47302045  0.65273222  0.90590632     0.96300
C29         C  0.50149487  0.66737456  0.82637851     0.96100
N30         N  0.60508924  0.46958959  0.84784486    -0.06000
N31         N  0.64323982  0.45144819  0.83788382    -0.58600
N32         N  0.59400654  0.51874848  0.88781938    -0.04200
N33         N  0.62413683  0.53452218  0.90069064    -0.59800
N34         N  0.59365895  0.46718367  0.88713141    -0.06100
N35         N  0.62322397  0.44693518  0.89949057    -0.58800
N36         N  0.60631675  0.52124891  0.84848477    -0.03800
N37         N  0.64539158  0.53909023  0.83898689    -0.59900
Mn38       Mn  0.55760702  0.56615554  0.86702384     1.18400
C39         C  0.66799594  0.49523254  0.83241562     0.98400
C40         C  0.64202892  0.48919682  0.90789383     0.99100
N41         N  0.37840754  0.52432824  0.84132563    -0.06100
N42         N  0.34339757  0.54240208  0.83014763    -0.62400
N43         N  0.37103846  0.47287540  0.88123442    -0.04900
N44         N  0.34285882  0.45533661  0.89434005    -0.63100
N45         N  0.37038596  0.52449312  0.88084971    -0.05600
N46         N  0.34143185  0.54320770  0.89362309    -0.62700
N47         N  0.37785867  0.47263437  0.84162793    -0.04500
N48         N  0.34274801  0.45485686  0.83062971    -0.63400
Mn49       Mn  0.41726892  0.56885446  0.86201126     1.10700
C50         C  0.32176877  0.49864310  0.82340639     0.99600
C51         C  0.32453962  0.49963067  0.90187845     0.99700
N52         N  0.50664893  0.38255794  0.88460188    -0.05600
N53         N  0.52144923  0.35408548  0.89807409    -0.61000
N54         N  0.46464732  0.38225491  0.84371974    -0.04900
N55         N  0.44895642  0.34680144  0.83243980    -0.57700
N56         N  0.51620440  0.38214559  0.84478459    -0.06200
N57         N  0.53651457  0.34692707  0.83410972    -0.60500
N58         N  0.45529555  0.38346005  0.88332907    -0.05200
N59         N  0.43399535  0.35535684  0.89585437    -0.57700
Mn60       Mn  0.55620157  0.42448614  0.86593730     1.20200
Mn61       Mn  0.41619560  0.42693758  0.86234637     1.10100
Cl62       Cl  0.48691955  0.49665675  0.86411540    -0.85700
C63         C  0.47574636  0.33752433  0.90505330     0.96600
C64         C  0.49417498  0.32562118  0.82632180     0.96400
N65         N  0.47083721  0.60469615  0.15622448    -0.05900
N66         N  0.45296624  0.63919664  0.16757786    -0.58000
N67         N  0.51948917  0.60183449  0.11611288    -0.05500
N68         N  0.53615756  0.63107466  0.10309380    -0.60100
N69         N  0.46791635  0.60076011  0.11636891    -0.05100
N70         N  0.44848685  0.62910655  0.10349059    -0.58000
N71         N  0.52246195  0.60516091  0.15582932    -0.04800
N72         N  0.54059772  0.64026827  0.16680869    -0.60500
C73         C  0.49687276  0.66111349  0.17413226     0.96300
C74         C  0.49147477  0.64755218  0.09521978     0.96100
N75         N  0.60770745  0.46363342  0.11596405    -0.06000
N76         N  0.63531983  0.44564716  0.10273119    -0.58600
N77         N  0.61188993  0.51625955  0.15574326    -0.04200
N78         N  0.64533095  0.53422948  0.16733451    -0.59800
N79         N  0.61257471  0.46458580  0.15577327    -0.06100
N80         N  0.64623088  0.44653494  0.16736243    -0.58800
N81         N  0.60732946  0.51523402  0.11594194    -0.03800
N82         N  0.63468260  0.53341700  0.10275174    -0.59900
Mn83       Mn  0.56645495  0.56066225  0.13602238     1.18400
C84         C  0.65165216  0.48966468  0.09453267     0.98400
C85         C  0.66618097  0.49028042  0.17462763     0.99100
N86         N  0.38200629  0.51245382  0.11798598    -0.06100
N87         N  0.35164460  0.52903080  0.10518028    -0.62400
N88         N  0.38614564  0.46391837  0.15853140    -0.04900
N89         N  0.35439758  0.44658612  0.17074167    -0.63100
N90         N  0.38500581  0.51554960  0.15793027    -0.05600
N91         N  0.35263670  0.53421714  0.16980999    -0.62700
N92         N  0.38176794  0.46089210  0.11887756    -0.04500
N93         N  0.35086428  0.44131516  0.10683163    -0.63400
Mn94       Mn  0.42533450  0.55937841  0.13715137     1.10700
C95         C  0.33253043  0.48421829  0.09834955     0.99600
C96         C  0.33389190  0.49079063  0.17778406     0.99700
N97         N  0.52709323  0.37568694  0.15728652    -0.05600
N98         N  0.54736458  0.34207304  0.16855595    -0.61000
N99         N  0.47033577  0.37584234  0.11830231    -0.04900
N100        N  0.45066323  0.34885330  0.10533901    -0.57700
N101        N  0.52184100  0.37607703  0.11748758    -0.06200
N102        N  0.53834878  0.34888930  0.10398696    -0.60500
N103        N  0.47553561  0.37533087  0.15813224    -0.05200
N104        N  0.45991821  0.34123814  0.16997889    -0.57700
Mn105      Mn  0.56845848  0.41893052  0.13664837     1.20200
Mn106      Mn  0.42744300  0.41792397  0.13863729     1.10100
Cl107      Cl  0.49692791  0.48927453  0.13724668    -0.85700
C108        C  0.50514896  0.32103196  0.17655966     0.96600
C109        C  0.49345087  0.33249007  0.09645679     0.96400
N110        N  0.12256330  0.03238573  0.65727132    -0.05900
N111        N  0.15851324  0.04902149  0.66828300    -0.58000
N112        N  0.12047632  0.98040669  0.61736281    -0.05500
N113        N  0.14845511  0.96177851  0.60436594    -0.60100
N114        N  0.12207338  0.03192231  0.61756474    -0.05100
N115        N  0.15103018  0.04945242  0.60466321    -0.58000
N116        N  0.12250092  0.98063168  0.65687129    -0.04800
N117        N  0.15837221  0.96132096  0.66749334    -0.60500
C118        C  0.18004498  0.00420542  0.67472553     0.96300
C119        C  0.16709658  0.00527915  0.59648923     0.96100
N120        N  0.98067111  0.89488848  0.61797652    -0.06000
N121        N  0.96110779  0.86527014  0.60561605    -0.58600
N122        N  0.03369582  0.89385585  0.65720044    -0.04200
N123        N  0.05152827  0.85714480  0.66783067    -0.59800
N124        N  0.98210420  0.89560755  0.65759628    -0.06100
N125        N  0.96399718  0.86007174  0.66850682    -0.58800
N126        N  0.03221244  0.89436551  0.61740969    -0.03800
N127        N  0.04880165  0.86435190  0.60454060    -0.59900
Mn128      Mn  0.07820068  0.93643753  0.63723874     1.18400
C129        C  0.00392558  0.84641089  0.59730248     0.98400
C130        C  0.00769854  0.83645535  0.67490446     0.99100
N131        N  0.03716500  0.11946544  0.61634966    -0.06100
N132        N  0.05721191  0.14549148  0.60315674    -0.62400
N133        N  0.98272962  0.12592397  0.65534045    -0.04900
N134        N  0.96368280  0.16264405  0.66565059    -0.63100
N135        N  0.03433786  0.12480319  0.65615242    -0.05600
N136        N  0.05116150  0.16110010  0.66701207    -0.62700
N137        N  0.98565373  0.11981907  0.61551078    -0.04500
N138        N  0.96970763  0.14637170  0.60170596    -0.63400
Mn139      Mn  0.08008358  0.07823493  0.63711367     1.10700
C140        C  0.01489008  0.16219908  0.59407175     0.99600
C141        C  0.00656623  0.18417427  0.67301033     0.99700
N142        N  0.89528954  0.98691883  0.65704062    -0.05600
N143        N  0.86080216  0.97032561  0.66852623    -0.61000
N144        N  0.89628501  0.03425515  0.61636134    -0.04900
N145        N  0.86582276  0.05082125  0.60357498    -0.57700
N146        N  0.89520840  0.98277801  0.61744779    -0.06200
N147        N  0.86406048  0.96325258  0.60550184    -0.60500
N148        N  0.89441303  0.03855724  0.65609191    -0.05200
N149        N  0.85907212  0.05793153  0.66690129    -0.57700
Mn150      Mn  0.93750302  0.93935814  0.63772498     1.20200
Mn151      Mn  0.93876891  0.08076970  0.63580923     1.10100
Cl152      Cl  0.00866535  0.00877240  0.63722017    -0.85700
C153        C  0.83887977  0.01495147  0.67474688     0.96600
C154        C  0.84595930  0.00601793  0.59692441     0.96400
N155        N  0.11545673  0.98206309  0.34056594    -0.05900
N156        N  0.14659678  0.96503095  0.32809501    -0.58000
N157        N  0.12208848  0.03052184  0.38093930    -0.05500
N158        N  0.15284155  0.04746274  0.39346559    -0.60100
N159        N  0.12359819  0.97898442  0.38022134    -0.05100
N160        N  0.15552381  0.95979265  0.39216513    -0.58000
N161        N  0.11562457  0.03371084  0.34117290    -0.04800
N162        N  0.14732269  0.05271955  0.32919002    -0.60500
C163        C  0.16575081  0.00946882  0.32095747     0.96300
C164        C  0.17361059  0.00289739  0.40032273     0.96100
N165        N  0.98121244  0.11760776  0.38389767    -0.06000
N166        N  0.96424942  0.14789941  0.39662009    -0.58600
N167        N  0.02621361  0.12132292  0.34356547    -0.04200
N168        N  0.04146431  0.15749896  0.33238115    -0.59800
N169        N  0.97464427  0.12006988  0.34433314    -0.06100
N170        N  0.95405333  0.15543912  0.33376080    -0.58800
N171        N  0.03282511  0.11722435  0.38336309    -0.03800
N172        N  0.05202900  0.14680797  0.39585308    -0.59900
Mn173      Mn  0.07525955  0.07672445  0.36222639     1.18400
C174        C  0.00878406  0.16534874  0.40408672     0.98400
C175        C  0.99603377  0.17841049  0.32624526     0.99100
N176        N  0.03829661  0.89192215  0.38182914    -0.06100
N177        N  0.05961991  0.86464724  0.39461952    -0.62400
N178        N  0.97872980  0.89075045  0.34323973    -0.04900
N179        N  0.95982707  0.85630358  0.33212565    -0.63100
N180        N  0.03020757  0.89215493  0.34209409    -0.05600
N181        N  0.04710941  0.85886870  0.33022786    -0.62700
N182        N  0.98688030  0.89156682  0.38304887    -0.04500
N183        N  0.97218560  0.86407881  0.39668742    -0.63400
Mn184      Mn  0.07783904  0.93532056  0.36102630     1.10700
C185        C  0.01791919  0.84741866  0.40382247     0.99600
C186        C  0.00294370  0.83681323  0.32395435     0.99700
N187        N  0.88752225  0.02990120  0.34558580    -0.05600
N188        N  0.85018057  0.04743801  0.33512490    -0.61000
N189        N  0.89778475  0.97738531  0.38530731    -0.04900
N190        N  0.87027783  0.95929722  0.39855447    -0.57700
N191        N  0.89663266  0.02900404  0.38513949    -0.06200
N192        N  0.86829033  0.04708112  0.39812764    -0.60500
N193        N  0.88864268  0.97820822  0.34556145    -0.05200
N194        N  0.85232646  0.95983534  0.33506549    -0.57700
Mn195      Mn  0.93405419  0.07498786  0.36460383     1.20200
Mn196      Mn  0.93696511  0.93332876  0.36423699     1.10100
Cl197      Cl  0.00596966  0.00514093  0.36285173    -0.85700
C198        C  0.82875233  0.00331817  0.32847596     0.96600
C199        C  0.85246359  0.00335736  0.40650343     0.96400
C200        C  0.02311716  0.55560311  0.50950090     0.02500
C201        C  0.02302921  0.55707464  0.49120346     0.02500
C202        C  0.02588360  0.50963606  0.48197784    -0.18000
C203        C  0.02397658  0.46099731  0.49045400     0.02500
C204        C  0.02171098  0.45950735  0.50874982     0.02500
C205        C  0.02348832  0.50689039  0.51799396    -0.18000
H206        H  0.02354092  0.50595198  0.53204255     0.04600
H207        H  0.02756923  0.51053087  0.46793787     0.04600
C208        C  0.55290845  0.00393906  0.50932933     0.02500
C209        C  0.55302392  0.00138963  0.49103528     0.02500
C210        C  0.50508044  0.00202083  0.48207497    -0.18000
C211        C  0.45697973  0.00248011  0.49084814     0.02500
C212        C  0.45684890  0.00315587  0.50912745     0.02500
C213        C  0.50475297  0.00542633  0.51806714    -0.18000
H214        H  0.50456220  0.00752067  0.53210200     0.04600
H215        H  0.50518330  0.00200233  0.46802087     0.04600
C216        C  0.99705286  0.50444204  0.24838208    -0.02200
C217        C  0.03342054  0.60889872  0.28267700    -0.01700
C218        C  0.99762524  0.65066031  0.27991007     0.06800
C219        C  0.96187938  0.64632183  0.26626789    -0.07700
C220        C  0.95909555  0.60118371  0.25593702     0.04300
C221        C  0.99405643  0.55744277  0.25894614    -0.14900
C222        C  0.03227325  0.56438976  0.27206200    -0.08300
C223        C  0.99793136  0.69987892  0.29059363     0.05200
C224        C  0.04540276  0.72627378  0.29321375    -0.09400
C225        C  0.04829738  0.77057776  0.30389182     0.00200
C226        C  0.00219088  0.79162738  0.31161097     0.00100
C227        C  0.95419946  0.76683006  0.30822024    -0.12900
C228        C  0.95174822  0.72119052  0.29811399     0.00500
C229        C  0.09972737  0.79170377  0.30711685     0.39900
C230        C  0.90149095  0.69602385  0.29631820     0.36500
C231        C  0.07110898  0.60976171  0.29662983     0.36200
C232        C  0.92167105  0.60501581  0.24195209     0.37000
N233        N  0.14131776  0.80760877  0.30981695    -0.43800
N234        N  0.86107390  0.67614984  0.29486480    -0.44300
N235        N  0.89135266  0.61001351  0.23089211    -0.41600
N236        N  0.10153486  0.61046795  0.30774506    -0.43100
H237        H  0.06079626  0.53338891  0.27449807     0.13100
H238        H  0.93607662  0.67939879  0.26342141     0.09600
H239        H  0.08093541  0.71157960  0.28710232     0.10600
H240        H  0.91835875  0.78205340  0.31398413     0.16500
C241        C  0.04042753  0.29196707  0.29800967    -0.01700
C242        C  0.99271613  0.31745224  0.29397832     0.06800
C243        C  0.94562156  0.29656007  0.30012795    -0.07700
C244        C  0.94533067  0.25097937  0.31034143     0.04300
C245        C  0.99327486  0.22530419  0.31463240    -0.14900
C246        C  0.04041009  0.24643794  0.30825046    -0.08300
C247        C  0.99106679  0.36487240  0.28278319     0.05200
C248        C  0.00038138  0.35905846  0.26511314    -0.09400
C249        C  0.00080996  0.40243991  0.25397149     0.00200
C250        C  0.99364714  0.45460544  0.26054806     0.00100
C251        C  0.98018495  0.45886494  0.27833991    -0.12900
C252        C  0.97973584  0.41501284  0.28936863     0.00500
C253        C  0.01154350  0.39085754  0.23602600     0.39900
C254        C  0.96829977  0.42249659  0.30751189     0.36500
C255        C  0.08990857  0.31255682  0.29203502     0.36200
C256        C  0.89505016  0.23230234  0.31623612     0.37000
N257        N  0.02103847  0.37850461  0.22195157    -0.43800
N258        N  0.95922644  0.42843182  0.32206581    -0.44300
N259        N  0.85454426  0.21769067  0.32091084    -0.41600
N260        N  0.12942406  0.32929463  0.28722858    -0.43100
H261        H  0.07756661  0.22769619  0.31136698     0.13100
H262        H  0.90887462  0.31594804  0.29686002     0.09600
H263        H  0.00773159  0.32005758  0.25999721     0.10600
H264        H  0.96896945  0.49614522  0.28388791     0.16500
C265        C  0.98275685  0.29130892  0.42847398    -0.01700
C266        C  0.01381295  0.28460927  0.44346887     0.06800
C267        C  0.04195034  0.23746157  0.44574857    -0.07700
C268        C  0.04022640  0.19773892  0.43320500     0.04300
C269        C  0.00986177  0.20487278  0.41809253    -0.14900
C270        C  0.98070222  0.25142805  0.41603164    -0.08300
C271        C  0.01807137  0.32697763  0.45663274     0.05200
C272        C  0.97330216  0.34218263  0.46605484    -0.09400
C273        C  0.97480328  0.38481818  0.47748336     0.00200
C274        C  0.02175190  0.41294965  0.47963630     0.00100
C275        C  0.06673265  0.39720842  0.47046853    -0.12900
C276        C  0.06538438  0.35431589  0.45916028     0.00500
C277        C  0.92724746  0.40043708  0.48630215     0.39900
C278        C  0.11250962  0.34027464  0.44981747     0.36500
C279        C  0.95436002  0.33965318  0.42526257     0.36200
C280        C  0.06775502  0.14904948  0.43652116     0.37000
N281        N  0.88917539  0.41309201  0.49337811    -0.43800
N282        N  0.15030854  0.32887345  0.44236347    -0.44300
N283        N  0.08918340  0.10975428  0.43935802    -0.41600
N284        N  0.93178124  0.37852268  0.42273073    -0.43100
H285        H  0.95740226  0.25727587  0.40442016     0.13100
H286        H  0.06525846  0.23173496  0.45736163     0.09600
H287        H  0.93683035  0.32134735  0.46417547     0.10600
H288        H  0.10283523  0.41890546  0.47203921     0.16500
C289        C  0.97326440  0.77064097  0.44303107    -0.01700
C290        C  0.01918049  0.74315220  0.44797185     0.06800
C291        C  0.06622823  0.75346606  0.43914396    -0.07700
C292        C  0.06776628  0.78913717  0.42530280     0.04300
C293        C  0.02083728  0.81354525  0.41950865    -0.14900
C294        C  0.97420548  0.80402286  0.42865001    -0.08300
C295        C  0.01759751  0.69890984  0.46061690     0.05200
C296        C  0.98077497  0.65904773  0.45797635    -0.09400
C297        C  0.98038699  0.61417015  0.46837052     0.00200
C298        C  0.01909249  0.60706957  0.48126720     0.00100
C299        C  0.05546839  0.64724047  0.48416330    -0.12900
C300        C  0.05434858  0.69335508  0.47421296     0.00500
C301        C  0.93969142  0.57599635  0.46551727     0.39900
C302        C  0.09100218  0.73440933  0.47828390     0.36500
C303        C  0.92455627  0.76523612  0.45244101     0.36200
C304        C  0.11777967  0.79803452  0.41705821     0.37000
N305        N  0.90721421  0.54531389  0.46323336    -0.43800
N306        N  0.12035513  0.76731880  0.48157020    -0.44300
N307        N  0.15810937  0.80509150  0.41059453    -0.41600
N308        N  0.88550530  0.76110377  0.45996368    -0.43100
H309        H  0.93790125  0.82197913  0.42436840     0.13100
H310        H  0.10167017  0.73217014  0.44266147     0.09600
H311        H  0.95271167  0.66240412  0.44747185     0.10600
H312        H  0.08533267  0.64228871  0.49403651     0.16500
C313        C  0.24100219  0.04245688  0.44186616    -0.01700
C314        C  0.28112395  0.00417625  0.44345816     0.06800
C315        C  0.28421611  0.96382632  0.43114123    -0.07700
C316        C  0.24939159  0.96206562  0.41711858     0.04300
C317        C  0.21070284  0.00173650  0.41511896    -0.14900
C318        C  0.20717528  0.04157396  0.42758365    -0.08300
C319        C  0.32234694  0.00669494  0.45711342     0.05200
C320        C  0.33086759  0.96296151  0.46794937    -0.09400
C321        C  0.37356459  0.96110150  0.47941254     0.00200
C322        C  0.40818514  0.00393377  0.48032375     0.00100
C323        C  0.39893068  0.04806794  0.46982718    -0.12900
C324        C  0.35691615  0.04963997  0.45819047     0.00500
C325        C  0.38279987  0.91367657  0.48926277     0.39900
C326        C  0.35239892  0.09432112  0.44671520     0.36500
C327        C  0.23301793  0.08246100  0.45483068     0.36200
C328        C  0.25633747  0.92074203  0.40454584     0.37000
N329        N  0.39008371  0.87544557  0.49706566    -0.43800
N330        N  0.34871448  0.13021692  0.43755793    -0.44300
N331        N  0.26223987  0.88760011  0.39449556    -0.41600
N332        N  0.22634992  0.11467754  0.46515197    -0.43100
H333        H  0.17745589  0.07192533  0.42625269     0.13100
H334        H  0.31499335  0.93431214  0.43222861     0.09600
H335        H  0.30507391  0.92945580  0.46701204     0.10600
H336        H  0.42584231  0.08079045  0.47033235     0.16500
C337        C  0.73502514  0.04546616  0.43289701    -0.01700
C338        C  0.73385807  0.00718730  0.44611457     0.06800
C339        C  0.77300202  0.96824148  0.44665021    -0.07700
C340        C  0.81283883  0.96670134  0.43415666     0.04300
C341        C  0.81353326  0.00439689  0.42072191    -0.14900
C342        C  0.77489965  0.04403041  0.42046640    -0.08300
C343        C  0.69016304  0.00478959  0.45873395     0.05200
C344        C  0.65581336  0.96225184  0.45783569    -0.09400
C345        C  0.61183145  0.95974372  0.46859069     0.00200
C346        C  0.60204739  0.00012471  0.48070749     0.00100
C347        C  0.63738956  0.04186912  0.48199263    -0.12900
C348        C  0.68129985  0.04446599  0.47113054     0.00500
C349        C  0.57707667  0.91555122  0.46684292     0.39900
C350        C  0.71634981  0.08835821  0.47280427     0.36500
C351        C  0.69451615  0.08516409  0.43133845     0.36200
C352        C  0.85365774  0.92771394  0.43602093     0.37000
N353        N  0.54905759  0.88031222  0.46543218    -0.43800
N354        N  0.74426281  0.12371760  0.47409169    -0.44300
N355        N  0.88642994  0.89665747  0.43799946    -0.41600
N356        N  0.66216426  0.11708069  0.43006022    -0.43100
H357        H  0.77479856  0.07312445  0.41017228     0.13100
H358        H  0.77231102  0.93891967  0.45687513     0.09600
H359        H  0.66271029  0.93157589  0.44836766     0.10600
H360        H  0.62982977  0.07324410  0.49114445     0.16500
C361        C  0.27148205  0.05060275  0.56539486    -0.01700
C362        C  0.27704337  0.00705900  0.55429483     0.06800
C363        C  0.24586635  0.96275656  0.55698789    -0.07700
C364        C  0.21016493  0.96080526  0.57069813     0.04300
C365        C  0.20325328  0.00506220  0.58150824    -0.14900
C366        C  0.23363399  0.04991936  0.57847750    -0.08300
C367        C  0.31958732  0.00413539  0.54129079     0.05200
C368        C  0.35736566  0.96425917  0.54311835    -0.09400
C369        C  0.40095100  0.96216864  0.53224477     0.00200
C370        C  0.40786148  0.00120350  0.51943352     0.00100
C371        C  0.36891895  0.03993900  0.51711629    -0.12900
C372        C  0.32437194  0.04102746  0.52772541     0.00500
C373        C  0.43805299  0.91947667  0.53447569     0.39900
C374        C  0.28397795  0.07988213  0.52443063     0.36500
C375        C  0.30708959  0.09436650  0.56462756     0.36200
C376        C  0.18366016  0.91187208  0.57376888     0.37000
N377        N  0.46789978  0.88537851  0.53619438    -0.43800
N378        N  0.25141540  0.11085113  0.52183900    -0.44300
N379        N  0.16379579  0.87197787  0.57638427    -0.41600
N380        N  0.33599753  0.12912370  0.56412162    -0.43100
H381        H  0.22993781  0.08362080  0.58695521     0.13100
H382        H  0.25114773  0.92864495  0.54876254     0.09600
H383        H  0.35334930  0.93526532  0.55335087     0.10600
H384        H  0.37373862  0.06987554  0.50724485     0.16500
C385        C  0.65209490  0.05023483  0.54222148    -0.01700
C386        C  0.68782867  0.00766406  0.54301055     0.06800
C387        C  0.67977426  0.96407351  0.53227841    -0.07700
C388        C  0.63682783  0.96231529  0.52094456     0.04300
C389        C  0.60168749  0.00536930  0.51991474    -0.14900
C390        C  0.61000394  0.04905218  0.53058838    -0.08300
C391        C  0.73086343  0.00588924  0.55603452     0.05200
C392        C  0.72944561  0.96725634  0.56900740    -0.09400
C393        C  0.76688174  0.96600389  0.58227673     0.00200
C394        C  0.80676700  0.00429148  0.58276329     0.00100
C395        C  0.80875047  0.04232587  0.56957904    -0.12900
C396        C  0.77171603  0.04296577  0.55615638     0.00500
C397        C  0.76155725  0.92661259  0.59565280     0.39900
C398        C  0.77693267  0.08142475  0.54250251     0.36500
C399        C  0.65578971  0.09394183  0.55401212     0.36200
C400        C  0.62769485  0.91446416  0.51151593     0.37000
N401        N  0.75708438  0.89504011  0.60635692    -0.43800
N402        N  0.78118396  0.11223329  0.53155330    -0.44300
N403        N  0.62056296  0.87569070  0.50415354    -0.41600
N404        N  0.65876273  0.12876669  0.56353798    -0.43100
H405        H  0.58238569  0.08166853  0.53022103     0.13100
H406        H  0.70626744  0.93063208  0.53316425     0.09600
H407        H  0.69808917  0.93872720  0.56900263     0.10600
H408        H  0.83963680  0.07134587  0.56966555     0.16500
C409        C  0.97057562  0.24176036  0.55500156    -0.01700
C410        C  0.01563285  0.27153858  0.55117460     0.06800
C411        C  0.06188892  0.26153946  0.56048190    -0.07700
C412        C  0.06355931  0.22407557  0.57376017     0.04300
C413        C  0.01736402  0.19694788  0.57852752    -0.14900
C414        C  0.97160102  0.20536264  0.56868040    -0.08300
C415        C  0.01441792  0.31655369  0.53878460     0.05200
C416        C  0.97707390  0.35664820  0.54130337    -0.09400
C417        C  0.97759388  0.40230491  0.53121428     0.00200
C418        C  0.01722523  0.40944731  0.51862138     0.00100
C419        C  0.05414926  0.36909188  0.51591849    -0.12900
C420        C  0.05250249  0.32260113  0.52562451     0.00500
C421        C  0.93690780  0.44120033  0.53404846     0.39900
C422        C  0.09020707  0.28167668  0.52176589     0.36500
C423        C  0.92290116  0.24787369  0.54506484     0.36200
C424        C  0.11314500  0.21593996  0.58244131     0.37000
N425        N  0.90450103  0.47254212  0.53629838    -0.43800
N426        N  0.12047138  0.24894487  0.51863166    -0.44300
N427        N  0.15317644  0.20946464  0.58922239    -0.41600
N428        N  0.88481864  0.25294072  0.53705431    -0.43100
H429        H  0.93623423  0.18391473  0.57178106     0.13100
H430        H  0.09666249  0.28436039  0.55772946     0.09600
H431        H  0.94799628  0.35282628  0.55148174     0.10600
H432        H  0.08500291  0.37422554  0.50641296     0.16500
C433        C  0.96990150  0.67831271  0.53120569    -0.01700
C434        C  0.01103529  0.69088135  0.54269363     0.06800
C435        C  0.05713388  0.66027215  0.54247926    -0.07700
C436        C  0.06230201  0.61730106  0.53134745     0.04300
C437        C  0.02061137  0.60379944  0.52026837    -0.14900
C438        C  0.97492543  0.63494924  0.52015247    -0.08300
C439        C  0.00637343  0.73415816  0.55557275     0.05200
C440        C  0.96580202  0.73295259  0.56788364    -0.09400
C441        C  0.96271487  0.77047194  0.58110381     0.00200
C442        C  0.00218019  0.80892690  0.58262599     0.00100
C443        C  0.04154040  0.81115521  0.56994840    -0.12900
C444        C  0.04349037  0.77486383  0.55636503     0.00500
C445        C  0.91917596  0.76775389  0.59304258     0.39900
C446        C  0.08279014  0.78118232  0.54305486     0.36500
C447        C  0.92248305  0.70959936  0.53041938     0.36200
C448        C  0.11098562  0.58789496  0.53133265     0.37000
N449        N  0.88386597  0.76589914  0.60245535    -0.43800
N450        N  0.11389233  0.78642780  0.53227191    -0.44300
N451        N  0.15001496  0.56435809  0.53122317    -0.41600
N452        N  0.88449151  0.73473411  0.52982343    -0.43100
H453        H  0.94285193  0.62484043  0.51159389     0.13100
H454        H  0.08895227  0.66954284  0.55124573     0.09600
H455        H  0.93686449  0.70202086  0.56733317     0.10600
H456        H  0.07023698  0.84210790  0.57046260     0.16500
C457        C  0.23602711  0.54488431  0.21018461    -0.01700
C458        C  0.20294558  0.50163247  0.21306859     0.06800
C459        C  0.21566449  0.45330609  0.20539191    -0.07700
C460        C  0.25961463  0.44782049  0.19464120     0.04300
C461        C  0.29094015  0.49208771  0.19082730    -0.14900
C462        C  0.27899742  0.54002695  0.19896889    -0.08300
C463        C  0.15371381  0.50615340  0.22338304     0.05200
C464        C  0.11566768  0.54351733  0.21872677    -0.09400
C465        C  0.06657209  0.54557875  0.22694989     0.00200
C466        C  0.05248173  0.50656185  0.23942468     0.00100
C467        C  0.09423909  0.47376991  0.24537805    -0.12900
C468        C  0.14336775  0.47248444  0.23738104     0.00500
C469        C  0.03149521  0.58692879  0.22133635     0.39900
C470        C  0.18309624  0.43710975  0.24409792     0.36500
C471        C  0.22740723  0.59422797  0.21891758     0.36200
C472        C  0.27044129  0.39648962  0.18752900     0.37000
N473        N  0.00546472  0.62075772  0.21603838    -0.43800
N474        N  0.21483659  0.40874532  0.24950364    -0.44300
N475        N  0.27911364  0.35514537  0.18199152    -0.41600
N476        N  0.22057189  0.63362169  0.22602295    -0.43100
H477        H  0.30329420  0.57404638  0.19655903     0.13100
H478        H  0.19051507  0.41975438  0.20759243     0.09600
H479        H  0.12395797  0.57079875  0.20822106     0.10600
H480        H  0.08975776  0.44878746  0.25668360     0.16500
C481        C  0.85150310  0.49051571  0.23612045    -0.01700
C482        C  0.85144685  0.48688738  0.21802293     0.06800
C483        C  0.89931776  0.48525834  0.20918444    -0.07700
C484        C  0.94741304  0.48928129  0.21793760     0.04300
C485        C  0.94822585  0.49703858  0.23633056    -0.14900
C486        C  0.89899642  0.49462990  0.24498844    -0.08300
C487        C  0.80185590  0.48605990  0.20797247     0.05200
C488        C  0.77113138  0.53189745  0.20698085    -0.09400
C489        C  0.72580529  0.53393658  0.19671166     0.00200
C490        C  0.71075697  0.48938538  0.18706350     0.00100
C491        C  0.74060115  0.44286091  0.18871706    -0.12900
C492        C  0.78580552  0.44095667  0.19900219     0.00500
C493        C  0.69536030  0.58198121  0.19658779     0.39900
C494        C  0.81505295  0.39228825  0.20022777     0.36500
C495        C  0.80318920  0.49114780  0.24589635     0.36200
C496        C  0.99317120  0.48213174  0.20719172     0.37000
N497        N  0.67096000  0.62050509  0.19658958    -0.43800
N498        N  0.83845723  0.35327932  0.20125484    -0.44300
N499        N  0.02842050  0.47561493  0.19794782    -0.41600
N500        N  0.76452466  0.49186303  0.25376140    -0.43100
H501        H  0.89740176  0.49879709  0.25895235     0.13100
H502        H  0.89896587  0.48082379  0.19519999     0.09600
H503        H  0.78309505  0.56645542  0.21408568     0.10600
H504        H  0.72943055  0.40803131  0.18162904     0.16500
C505        C  0.51246581  0.17290211  0.02723011    -0.01700
C506        C  0.47969458  0.17999331  0.04177510     0.06800
C507        C  0.43975088  0.14387813  0.04506618    -0.07700
C508        C  0.43314129  0.10006296  0.03450281     0.04300
C509        C  0.46721188  0.09154636  0.02029021    -0.14900
C510        C  0.50650101  0.12850774  0.01676452    -0.08300
C511        C  0.48689281  0.22340680  0.05425769     0.05200
C512        C  0.44556587  0.25926325  0.05675929    -0.09400
C513        C  0.44746654  0.29642490  0.07003832     0.00200
C514        C  0.49154119  0.29792839  0.08113992     0.00100
C515        C  0.53385924  0.26355094  0.07811619    -0.12900
C516        C  0.53166596  0.22608644  0.06494590     0.00500
C517        C  0.40382695  0.33257801  0.07182145     0.39900
C518        C  0.57442531  0.18886255  0.06337514     0.36500
C519        C  0.55222678  0.21067716  0.02280603     0.36200
C520        C  0.39147659  0.06408365  0.03872983     0.37000
N521        N  0.36880304  0.36150230  0.07316162    -0.43800
N522        N  0.60878999  0.15913417  0.06213206    -0.44300
N523        N  0.35842228  0.03506505  0.04226072    -0.41600
N524        N  0.58407551  0.24102306  0.01928961    -0.43100
H525        H  0.53324342  0.12219517  0.00603299     0.13100
H526        H  0.41429459  0.14940034  0.05619651     0.09600
H527        H  0.41115367  0.25734535  0.04852672     0.10600
H528        H  0.56782372  0.26426961  0.08656828     0.13700
C529        C  0.43515673  0.84326633  0.04340005    -0.01700
C530        C  0.47954772  0.80968039  0.04250212     0.06800
C531        C  0.51874861  0.82025025  0.03018455    -0.07700
C532        C  0.51509436  0.86430167  0.01931101     0.04300
C533        C  0.47065227  0.89755648  0.02026534    -0.14900
C534        C  0.43116295  0.88658076  0.03233283    -0.08300
C535        C  0.48617985  0.76477422  0.05475497     0.05200
C536        C  0.44623116  0.72744961  0.05601736    -0.09400
C537        C  0.44722016  0.68872161  0.06890800     0.00200
C538        C  0.49002431  0.68532791  0.08050808     0.00100
C539        C  0.53172246  0.72059851  0.07849503    -0.12900
C540        C  0.52987607  0.76046837  0.06594013     0.00500
C541        C  0.40312491  0.65388471  0.06997849     0.39900
C542        C  0.57200518  0.79799871  0.06544226     0.36500
C543        C  0.39401773  0.83554510  0.05600551     0.36200
C544        C  0.55881409  0.87628572  0.00812463     0.37000
N545        N  0.36697417  0.62688862  0.07074287    -0.43800
N546        N  0.60582446  0.82800426  0.06500542    -0.44300
N547        N  0.59415607  0.88586810  0.99927439    -0.41600
N548        N  0.36085641  0.82932084  0.06603290    -0.43100
H549        H  0.39740762  0.91265697  0.03329630     0.13100
H550        H  0.55291644  0.79472509  0.02936099     0.09600
H551        H  0.41309289  0.72973440  0.04722533     0.10600
H552        H  0.56488585  0.71860108  0.08727264     0.16500
C553        C  0.42339277  0.23073746  0.93427144    -0.01700
C554        C  0.46408918  0.22446340  0.94649619     0.06800
C555        C  0.50805483  0.25711044  0.94548474    -0.07700
C556        C  0.51237832  0.29504551  0.93238161     0.04300
C557        C  0.47180279  0.30099457  0.92000008    -0.14900
C558        C  0.42713667  0.26930539  0.92138826    -0.08300
C559        C  0.46403183  0.18064603  0.95924943     0.05200
C560        C  0.50237329  0.14128081  0.95758434    -0.09400
C561        C  0.50191761  0.09694562  0.96826937     0.00200
C562        C  0.46231826  0.09116737  0.98094800     0.00100
C563        C  0.42491441  0.13150664  0.98306510    -0.12900
C564        C  0.42574750  0.17627721  0.97240274     0.00500
C565        C  0.54269936  0.05783712  0.96599040     0.39900
C566        C  0.38726904  0.21732520  0.97516582     0.36500
C567        C  0.37913926  0.19573076  0.93394305     0.36200
C568        C  0.55882262  0.32714806  0.93203574     0.37000
N569        N  0.57510447  0.02624345  0.96416962    -0.43800
N570        N  0.35652439  0.25038947  0.97726621    -0.44300
N571        N  0.59611594  0.35275665  0.93176459    -0.41600
N572        N  0.34383360  0.16748535  0.93365412    -0.43100
H573        H  0.39596871  0.27295303  0.91188843     0.13100
H574        H  0.53962065  0.25214262  0.95478683     0.09600
H575        H  0.53219242  0.14471154  0.94761585     0.10600
H576        H  0.39473348  0.12768880  0.99288696     0.16500
C577        C  0.50224460  0.84308111  0.95998854    -0.01700
C578        C  0.46017858  0.80745579  0.96024253     0.06800
C579        C  0.41797487  0.81637356  0.97161603    -0.07700
C580        C  0.41683819  0.86072652  0.98236120     0.04300
C581        C  0.45823175  0.89713201  0.98161771    -0.14900
C582        C  0.50043662  0.88784282  0.97036455    -0.08300
C583        C  0.45829733  0.76335363  0.94770456     0.05200
C584        C  0.49617225  0.72313201  0.94865873    -0.09400
C585        C  0.50042691  0.68538736  0.93554001     0.00200
C586        C  0.46671490  0.68793650  0.92104828     0.00100
C587        C  0.42663070  0.72614563  0.92071452    -0.12900
C588        C  0.42223203  0.76371353  0.93385458     0.00500
C589        C  0.53844558  0.64355065  0.93754157     0.39900
C590        C  0.38210229  0.80385530  0.93239601     0.36500
C591        C  0.54724914  0.83520920  0.94890125     0.36200
C592        C  0.37200237  0.86908270  0.99347547     0.37000
N593        N  0.56842759  0.60958991  0.93925530    -0.43800
N594        N  0.34991059  0.83600200  0.93130096    -0.44300
N595        N  0.33603989  0.87554990  0.00240258    -0.41600
N596        N  0.58358715  0.82867287  0.94015165    -0.43100
H597        H  0.53226591  0.91579328  0.96973419     0.13100
H598        H  0.38550425  0.78913661  0.97184732     0.09600
H599        H  0.52320349  0.72198056  0.95950275     0.10600
H600        H  0.39988693  0.72803628  0.90980388     0.16500
C601        C  0.02639217  0.41401866  0.71452192    -0.01700
C602        C  0.99030484  0.37260642  0.71545829     0.06800
C603        C  0.94820391  0.37699505  0.72700242    -0.07700
C604        C  0.94156725  0.42100345  0.73764693     0.04300
C605        C  0.98140536  0.46034904  0.73848489    -0.14900
C606        C  0.02171898  0.45680636  0.72580036    -0.08300
C607        C  0.99471740  0.32494409  0.70427182     0.05200
C608        C  0.04103441  0.29466705  0.70459575    -0.09400
C609        C  0.04643417  0.24925012  0.69445657     0.00200
C610        C  0.00408041  0.23201491  0.68413465     0.00100
C611        C  0.95763885  0.26230842  0.68396549    -0.12900
C612        C  0.95294704  0.30856463  0.69362572     0.00500
C613        C  0.09609845  0.22181603  0.69490962     0.39900
C614        C  0.90546377  0.33949200  0.69187058     0.36500
C615        C  0.06818583  0.41404239  0.70189315     0.36200
C616        C  0.89025452  0.42582438  0.74536601     0.37000
N617        N  0.13652196  0.20086294  0.69523279    -0.43800
N618        N  0.86746621  0.36433274  0.69047524    -0.44300
N619        N  0.84819289  0.42931830  0.75091125    -0.41600
N620        N  0.10158901  0.41405297  0.69173270    -0.43100
H621        H  0.05132861  0.48706272  0.72517096     0.13100
H622        H  0.91900839  0.34624629  0.72729600     0.09600
H623        H  0.07325528  0.30665179  0.71281040     0.10600
H624        H  0.92500657  0.25061393  0.67589095     0.16500
C625        C  0.03337930  0.63861925  0.73078474    -0.01700
C626        C  0.99577565  0.64870072  0.71785066     0.06800
C627        C  0.95539955  0.61253458  0.71550868    -0.07700
C628        C  0.95013011  0.56857403  0.72635634     0.04300
C629        C  0.98741964  0.55802389  0.73982900    -0.14900
C630        C  0.03038816  0.59305030  0.74088837    -0.08300
C631        C  0.99814959  0.69663615  0.70666766     0.05200
C632        C  0.04463662  0.70776866  0.69763263    -0.09400
C633        C  0.04958723  0.75363073  0.68771027     0.00200
C634        C  0.00651997  0.78886496  0.68613616     0.00100
C635        C  0.95967781  0.77703958  0.69488063    -0.12900
C636        C  0.95529599  0.73187792  0.70516021     0.00500
C637        C  0.09924365  0.76266099  0.67923080     0.39900
C638        C  0.90672796  0.72352065  0.71436168     0.36500
C639        C  0.07473201  0.67546412  0.73442852     0.36200
C640        C  0.90419709  0.53703588  0.72351862     0.37000
N641        N  0.13927588  0.76972730  0.67256527    -0.43800
N642        N  0.86764472  0.71686679  0.72165088    -0.44300
N643        N  0.86641050  0.51370818  0.72070869    -0.41600
N644        N  0.10758972  0.70522519  0.73735315    -0.43100
H645        H  0.06272970  0.58612984  0.74957049     0.13100
H646        H  0.92690341  0.61931660  0.70529463     0.09600
H647        H  0.07748305  0.68053080  0.69842479     0.10600
H648        H  0.92628905  0.80352346  0.69385296     0.16500
C649        C  0.11796363  0.45630041  0.77064740    -0.01700
C650        C  0.12916458  0.49364175  0.78345509     0.06800
C651        C  0.09231669  0.53320701  0.78681637    -0.07700
C652        C  0.04603590  0.53788235  0.77718157     0.04300
C653        C  0.03484351  0.50188496  0.76346451    -0.14900
C654        C  0.07049753  0.45903443  0.76159939    -0.08300
C655        C  0.17934343  0.49352542  0.79329946     0.05200
C656        C  0.20928390  0.53953977  0.79350931    -0.09400
C657        C  0.25530009  0.54272021  0.80332385     0.00200
C658        C  0.27388872  0.49807879  0.81245528     0.00100
C659        C  0.24382675  0.45200632  0.81217169    -0.12900
C660        C  0.19619466  0.44998601  0.80323107     0.00500
C661        C  0.28088287  0.59294458  0.80427585     0.39900
C662        C  0.16373889  0.40425675  0.80549667     0.36500
C663        C  0.15539161  0.41586952  0.76592157     0.36200
C664        C  0.01253534  0.58179559  0.78160746     0.37000
N665        N  0.30028956  0.63372410  0.80525587    -0.43800
N666        N  0.13766582  0.36771029  0.80739612    -0.44300
N667        N  0.98752535  0.61771942  0.78576973    -0.41600
N668        N  0.18523380  0.38344330  0.76208209    -0.43100
H669        H  0.06267609  0.42671252  0.75305500     0.13100
H670        H  0.10030298  0.56147601  0.79694845     0.09600
H671        H  0.19585407  0.57368836  0.78628413     0.10600
H672        H  0.25618315  0.41800564  0.81965622     0.16500
C673        C  0.77025739  0.45348797  0.79959273    -0.01700
C674        C  0.80850493  0.49292719  0.80136635     0.06800
C675        C  0.80138889  0.53179931  0.81400019    -0.07700
C676        C  0.75652341  0.53276047  0.82446537     0.04300
C677        C  0.71716962  0.49462351  0.82218466    -0.14900
C678        C  0.72523954  0.45454304  0.81002396    -0.08300
C679        C  0.85402374  0.49723865  0.78938836     0.05200
C680        C  0.85741176  0.54172203  0.77882138    -0.09400
C681        C  0.89889665  0.54855634  0.76712639     0.00200
C682        C  0.93757139  0.50791938  0.76490576     0.00100
C683        C  0.93542151  0.46517414  0.77679008    -0.12900
C684        C  0.89461223  0.45967411  0.78881537     0.00500
C685        C  0.90153083  0.60012991  0.75942185     0.39900
C686        C  0.89555268  0.41537854  0.80052405     0.36500
C687        C  0.77508580  0.41246701  0.78683884     0.36200
C688        C  0.75300149  0.57208818  0.83785665     0.37000
N689        N  0.90282014  0.64240068  0.75389513    -0.43800
N690        N  0.89634260  0.37988652  0.80991747    -0.44300
N691        N  0.75027262  0.60331314  0.84868250    -0.41600
N692        N  0.77825683  0.37894187  0.77680862    -0.43100
H693        H  0.69562736  0.42466138  0.80834473     0.13100
H694        H  0.83099228  0.56173459  0.81560914     0.09600
H695        H  0.82757186  0.57215679  0.78000850     0.10600
H696        H  0.96523583  0.43462028  0.77625602     0.16500
C697        C  0.63118783  0.05601620  0.72592777    -0.01700
C698        C  0.64673728  0.01435789  0.71511139     0.06800
C699        C  0.61629816  0.96888081  0.71486158    -0.07700
C700        C  0.57206865  0.96351645  0.72554021     0.04300
C701        C  0.55764426  0.00398684  0.73747794    -0.14900
C702        C  0.58718171  0.05089704  0.73663365    -0.08300
C703        C  0.69611034  0.01586036  0.70473414     0.05200
C704        C  0.73469662  0.97723425  0.70780441    -0.09400
C705        C  0.78176311  0.97650086  0.69840471     0.00200
C706        C  0.79154123  0.01587552  0.68590745     0.00100
C707        C  0.75314458  0.05473409  0.68293127    -0.12900
C708        C  0.70527097  0.05426157  0.69186316     0.00500
C709        C  0.81935514  0.93508888  0.70194237     0.39900
C710        C  0.66523406  0.09177026  0.68687265     0.36500
C711        C  0.66022124  0.10442289  0.72661822     0.36200
C712        C  0.54443603  0.91439102  0.72443588     0.37000
N713        N  0.84932186  0.90171918  0.70471087    -0.43800
N714        N  0.63325093  0.12188445  0.68281976    -0.44300
N715        N  0.52337998  0.87446599  0.72333228    -0.41600
N716        N  0.68295333  0.14352902  0.72704082    -0.43100
H717        H  0.57608857  0.08500435  0.74404230     0.13100
H718        H  0.62769560  0.93686266  0.70638481     0.09600
H719        H  0.72787889  0.94735014  0.71757410     0.10600
H720        H  0.75948819  0.08423007  0.67300256     0.16500
C721        C  0.31530424  0.96385642  0.69024160    -0.01700
C722        C  0.32240341  0.99640583  0.70477627     0.06800
C723        C  0.28243811  0.03200512  0.70937750    -0.07700
C724        C  0.23560831  0.03503352  0.69987228     0.04300
C725        C  0.22819651  0.00201598  0.68546906    -0.14900
C726        C  0.26825946  0.96643022  0.68087930    -0.08300
C727        C  0.37122539  0.99432530  0.71532514     0.05200
C728        C  0.40335937  0.03839611  0.71581284    -0.09400
C729        C  0.44791089  0.03985542  0.72642334     0.00200
C730        C  0.46171247  0.99595999  0.73721628     0.00100
C731        C  0.43059459  0.95037272  0.73543505    -0.12900
C732        C  0.38523157  0.94991933  0.72520155     0.00500
C733        C  0.47549170  0.08911853  0.72679114     0.39900
C734        C  0.35226789  0.90410058  0.72569690     0.36500
C735        C  0.35645766  0.92888830  0.68437023     0.36200
C736        C  0.19465433  0.07003687  0.70576648     0.37000
N737        N  0.49592475  0.12951998  0.72693860    -0.43800
N738        N  0.32564675  0.86755291  0.72617854    -0.44300
N739        N  0.16161522  0.09754974  0.71071457    -0.41600
N740        N  0.38961965  0.90102360  0.67970292    -0.43100
H741        H  0.26331502  0.94137755  0.66967382     0.13100
H742        H  0.28761733  0.05698584  0.72059042     0.09600
H743        H  0.39270667  0.07259879  0.70812328     0.10600
H744        H  0.44081728  0.91427285  0.74199108     0.16500
C745        C  0.54827601  0.10292760  0.78393725    -0.01700
C746        C  0.50278479  0.13427869  0.78555251     0.06800
C747        C  0.45693777  0.11802884  0.77725801    -0.07700
C748        C  0.45599326  0.07280850  0.76698543     0.04300
C749        C  0.50360909  0.04468154  0.76327750    -0.14900
C750        C  0.54779672  0.05814660  0.77341235    -0.08300
C751        C  0.50120961  0.18300913  0.79629679     0.05200
C752        C  0.53551639  0.22446702  0.79250211    -0.09400
C753        C  0.53402453  0.27125869  0.80208799     0.00200
C754        C  0.49651188  0.27787503  0.81538446     0.00100
C755        C  0.46188085  0.23673053  0.81903729    -0.12900
C756        C  0.46462278  0.18932213  0.80991375     0.00500
C757        C  0.57049423  0.31234721  0.79777430     0.39900
C758        C  0.43120114  0.14679334  0.81533039     0.36500
C759        C  0.59595243  0.11563292  0.79302628     0.36200
C760        C  0.40439173  0.05503926  0.76213319     0.37000
N761        N  0.59978461  0.34527422  0.79435347    -0.43800
N762        N  0.40474275  0.11249074  0.81968878    -0.44300
N763        N  0.36258019  0.04134897  0.75856917    -0.41600
N764        N  0.63425908  0.12590329  0.80025294    -0.43100
H765        H  0.58351981  0.03509152  0.77233879     0.13100
H766        H  0.42098461  0.14044807  0.77913493     0.09600
H767        H  0.56343293  0.22032000  0.78197655     0.10600
H768        H  0.43376769  0.24089292  0.82950980     0.16500
C769        C  0.54674654  0.79884600  0.80875586    -0.01700
C770        C  0.51413893  0.80630344  0.79413831     0.06800
C771        C  0.47922057  0.76615194  0.78962130    -0.07700
C772        C  0.47493712  0.72035611  0.79970882     0.04300
C773        C  0.50666426  0.71345364  0.81455066    -0.14900
C774        C  0.54315234  0.75261088  0.81864999    -0.08300
C775        C  0.51438747  0.85614127  0.78373878     0.05200
C776        C  0.56068680  0.87308254  0.77576009    -0.09400
C777        C  0.56202641  0.91929485  0.76571698     0.00200
C778        C  0.51469485  0.94832457  0.76221440     0.00100
C779        C  0.47010387  0.93352682  0.77198813    -0.12900
C780        C  0.46913569  0.88781317  0.78213362     0.00500
C781        C  0.61369447  0.93722019  0.76096083     0.39900
C782        C  0.42111289  0.87457465  0.79099958     0.36500
C783        C  0.58226508  0.83915176  0.81441946     0.36200
C784        C  0.43878066  0.68047157  0.79422259     0.37000
N785        N  0.65552362  0.95113822  0.75746148    -0.43800
N786        N  0.38268632  0.86365408  0.79808936    -0.44300
N787        N  0.40999136  0.64850881  0.78965062    -0.41600
N788        N  0.61066779  0.87147798  0.81899215    -0.43100
H789        H  0.56766669  0.74802595  0.83004453     0.13100
H790        H  0.45469792  0.77093234  0.77823573     0.09600
H791        H  0.59647601  0.85045666  0.77767446     0.10600
H792        H  0.43452258  0.95679019  0.77111633     0.16500
C793        C  0.26536623  0.51401153  0.05569868    -0.01700
C794        C  0.21785679  0.48649015  0.05744468     0.06800
C795        C  0.20931635  0.45621065  0.07238982    -0.07700
C796        C  0.24659803  0.45415864  0.08571294     0.04300
C797        C  0.29355652  0.48274493  0.08416962    -0.14900
C798        C  0.30275279  0.51173667  0.06901083    -0.08300
C799        C  0.17629346  0.48829917  0.04394938     0.05200
C800        C  0.16489523  0.44231395  0.03478430    -0.09400
C801        C  0.12273778  0.44069418  0.02315407     0.00200
C802        C  0.09111827  0.48576311  0.02055592     0.00100
C803        C  0.10289644  0.53192736  0.02957273    -0.12900
C804        C  0.14522456  0.53364968  0.04112507     0.00500
C805        C  0.11097276  0.39155013  0.01483292     0.39900
C806        C  0.15449048  0.58164131  0.05048590     0.36500
C807        C  0.27682481  0.54416706  0.04030952     0.36200
C808        C  0.23472749  0.42428556  0.10112791     0.37000
N809        N  0.10175381  0.35193099  0.00826104    -0.43800
N810        N  0.16181313  0.62024681  0.05792712    -0.44300
N811        N  0.22517532  0.40042789  0.11350045    -0.41600
N812        N  0.28600734  0.56844863  0.02799541    -0.43100
H813        H  0.33963804  0.53189236  0.06747569     0.13100
H814        H  0.17289539  0.43486175  0.07377270     0.09600
H815        H  0.18828002  0.40720350  0.03706636     0.10600
H816        H  0.07815815  0.56638978  0.02785168     0.16500
C817        C  0.81571774  0.52834126  0.02705896    -0.01700
C818        C  0.80719099  0.49022127  0.04008047     0.06800
C819        C  0.84262106  0.44816153  0.04181404    -0.07700
C820        C  0.88723076  0.44474537  0.03140417     0.04300
C821        C  0.89716944  0.48400687  0.01892031    -0.14900
C822        C  0.86079520  0.52517392  0.01667876    -0.08300
C823        C  0.76325463  0.49368085  0.05266896     0.05200
C824        C  0.72892008  0.45109183  0.05418202    -0.09400
C825        C  0.69181212  0.44887228  0.06755025     0.00200
C826        C  0.68787939  0.49058857  0.07952204     0.00100
C827        C  0.72109575  0.53396695  0.07761076    -0.12900
C828        C  0.75925427  0.53535064  0.06460015     0.00500
C829        C  0.65876423  0.40321275  0.06865323     0.39900
C830        C  0.79625603  0.57799162  0.06462406     0.36500
C831        C  0.77894797  0.57086331  0.02412167     0.36200
C832        C  0.92211033  0.40023673  0.03365251     0.37000
N833        N  0.63261405  0.36636379  0.06948749    -0.43800
N834        N  0.82596568  0.61209371  0.06469504    -0.44300
N835        N  0.95007669  0.36454908  0.03529056    -0.41600
N836        N  0.74963636  0.60510628  0.02180000    -0.43100
H837        H  0.86815191  0.55533895  0.00705869     0.13100
H838        H  0.83600946  0.41844826  0.05165647     0.09600
H839        H  0.73228965  0.41864961  0.04516636     0.10600
H840        H  0.71907563  0.56589118  0.08685629     0.16500
C841        C  0.15202048  0.43998661  0.96126248    -0.01700
C842        C  0.17936131  0.48748029  0.95886920     0.06800
C843        C  0.16403540  0.53208779  0.96827345    -0.07700
C844        C  0.12123879  0.53037249  0.97958208     0.04300
C845        C  0.09367002  0.48312434  0.98179458    -0.14900
C846        C  0.10965554  0.43818711  0.97274226    -0.08300
C847        C  0.21971375  0.49316225  0.94519001     0.05200
C848        C  0.20992721  0.52861898  0.93160100    -0.09400
C849        C  0.24478159  0.53288168  0.91770413     0.00200
C850        C  0.28948916  0.49998245  0.91702789     0.00100
C851        C  0.30019673  0.46565805  0.93086644    -0.12900
C852        C  0.26638831  0.46307708  0.94513763     0.00500
C853        C  0.23256353  0.56968624  0.90398969     0.39900
C854        C  0.28098881  0.43071477  0.95978196     0.36500
C855        C  0.16414317  0.39368702  0.95122947     0.36200
C856        C  0.10392651  0.57840184  0.98773776     0.37000
N857        N  0.22300288  0.59936733  0.89303430    -0.43800
N858        N  0.29271190  0.40521863  0.97161861    -0.44300
N859        N  0.08986336  0.61698674  0.99417827    -0.41600
N860        N  0.17377378  0.35650770  0.94322138    -0.43100
H861        H  0.08754493  0.40222387  0.97412656     0.13100
H862        H  0.18431179  0.56885599  0.96623008     0.09600
H863        H  0.17437287  0.55230838  0.93169844     0.10600
H864        H  0.33536473  0.44141603  0.93062424     0.16500
C865        C  0.85029605  0.52524552  0.95662483    -0.01700
C866        C  0.81015148  0.48776035  0.95832047     0.06800
C867        C  0.81638210  0.44666880  0.97032140    -0.07700
C868        C  0.86136845  0.44286789  0.98068022     0.04300
C869        C  0.89990604  0.48230587  0.97979411    -0.14900
C870        C  0.89392877  0.52300208  0.96760657    -0.08300
C871        C  0.76422474  0.48743423  0.94645924     0.05200
C872        C  0.75774514  0.44411429  0.93556164    -0.09400
C873        C  0.71773773  0.44321370  0.92318698     0.00200
C874        C  0.68271655  0.48646046  0.92161247     0.00100
C875        C  0.68847926  0.52925799  0.93285301    -0.12900
C876        C  0.72843634  0.52990057  0.94530687     0.00500
C877        C  0.71621294  0.39879711  0.91162600     0.39900
C878        C  0.73184893  0.57448596  0.95673780     0.36500
C879        C  0.84939459  0.56403248  0.94293527     0.36200
C880        C  0.86885367  0.39596472  0.99092579     0.37000
N881        N  0.71542760  0.36323834  0.90234022    -0.43800
N882        N  0.73462631  0.61039763  0.96582157    -0.44300
N883        N  0.87449327  0.35761440  0.99880159    -0.41600
N884        N  0.84872682  0.59469775  0.93184169    -0.43100
H885        H  0.92422793  0.55242738  0.96637258     0.13100
H886        H  0.78680322  0.41639392  0.97113627     0.09600
H887        H  0.78532875  0.41151173  0.93633160     0.10600
H888        H  0.66195960  0.56257398  0.93182250     0.16500
C889        C  0.58901317  0.00773032  0.29236716    -0.01700
C890        C  0.64044909  0.00430384  0.28587064     0.06800
C891        C  0.64785815  0.99807730  0.26809602    -0.07700
C892        C  0.60533525  0.99289095  0.25677082     0.04300
C893        C  0.55255481  0.99231199  0.26317847    -0.14900
C894        C  0.54606820  0.00309915  0.28110635    -0.08300
C895        C  0.68754550  0.00471015  0.29726093     0.05200
C896        C  0.71708805  0.95833447  0.29900243    -0.09400
C897        C  0.76328373  0.95685782  0.30885033     0.00200
C898        C  0.78102853  0.00283617  0.31725180     0.00100
C899        C  0.75144408  0.04944375  0.31528639    -0.12900
C900        C  0.70518487  0.05069121  0.30542200     0.00500
C901        C  0.79186312  0.90772521  0.30967269     0.39900
C902        C  0.67714861  0.09983540  0.30352139     0.36500
C903        C  0.57921897  0.01511643  0.31062350     0.36200
C904        C  0.61879071  0.98473068  0.23882227     0.37000
N905        N  0.81451312  0.86818348  0.31023701    -0.43800
N906        N  0.65469280  0.13925192  0.30201159    -0.44300
N907        N  0.63269874  0.97763654  0.22474798    -0.41600
N908        N  0.57122775  0.02104661  0.32524771    -0.43100
H909        H  0.50762285  0.00881113  0.28666509     0.13100
H910        H  0.68758625  0.99621921  0.26304504     0.09600
H911        H  0.70403620  0.92306810  0.29250873     0.10600
H912        H  0.76424227  0.08514597  0.32154521     0.16500
C913        C  0.29677659  0.04277912  0.30122984    -0.01700
C914        C  0.30236233  0.00368643  0.28847341     0.06800
C915        C  0.26104181  0.96891855  0.28548064    -0.07700
C916        C  0.21492056  0.97180168  0.29534166     0.04300
C917        C  0.20998451  0.00977031  0.30854768    -0.14900
C918        C  0.25068176  0.04576423  0.31106211    -0.08300
C919        C  0.35137641  0.99825965  0.27827144     0.05200
C920        C  0.38666750  0.95788640  0.28230290    -0.09400
C921        C  0.43481165  0.95290190  0.27361453     0.00200
C922        C  0.44975426  0.99009241  0.26059352     0.00100
C923        C  0.41058135  0.02753426  0.25572301    -0.12900
C924        C  0.36312093  0.03273691  0.26467637     0.00500
C925        C  0.46751846  0.90928045  0.27890641     0.39900
C926        C  0.32665894  0.07369625  0.25959976     0.36500
C927        C  0.33873571  0.07879905  0.30490138     0.36200
C928        C  0.17262782  0.93659524  0.29128450     0.37000
N929        N  0.49163138  0.87362327  0.28387554    -0.43800
N930        N  0.29747550  0.10663608  0.25563796    -0.44300
N931        N  0.13850289  0.90883316  0.28785455    -0.41600
N932        N  0.37249065  0.10751718  0.30784370    -0.43100
H933        H  0.24748432  0.07487422  0.32123729     0.13100
H934        H  0.26495091  0.93943910  0.27544481     0.09600
H935        H  0.37671462  0.93034433  0.29253038     0.10600
H936        H  0.41555726  0.05297319  0.24463218     0.16500
C937        C  0.50944788  0.13364547  0.23776278    -0.01700
C938        C  0.51226992  0.13350617  0.21964432     0.06800
C939        C  0.51661209  0.08553433  0.21099999    -0.07700
C940        C  0.51643972  0.03743048  0.22000539     0.04300
C941        C  0.50980672  0.03651236  0.23847167    -0.14900
C942        C  0.50908573  0.08614337  0.24688528    -0.08300
C943        C  0.50987898  0.18303182  0.20940854     0.05200
C944        C  0.55564408  0.21214533  0.20682347    -0.09400
C945        C  0.55497800  0.25812402  0.19671742     0.00200
C946        C  0.50760633  0.27555999  0.18883591     0.00100
C947        C  0.46152372  0.24698943  0.19203714    -0.12900
C948        C  0.46238011  0.20121549  0.20217939     0.00500
C949        C  0.60344449  0.28659060  0.19491305     0.39900
C950        C  0.41404886  0.17329178  0.20501554     0.36500
C951        C  0.50519952  0.18217717  0.24728051     0.36200
C952        C  0.52699728  0.99184143  0.20949586     0.37000
N953        N  0.64239756  0.30928864  0.19356725    -0.43800
N954        N  0.37541719  0.15081907  0.20737988    -0.44300
N955        N  0.53645704  0.95640587  0.20063718    -0.41600
N956        N  0.50167082  0.22106196  0.25491296    -0.43100
H957        H  0.50555847  0.08778861  0.26086713     0.13100
H958        H  0.52060014  0.08581329  0.19700310     0.09600
H959        H  0.59208314  0.19865115  0.21263994     0.10600
H960        H  0.42471829  0.25969730  0.18630526     0.16500
C961        C  0.45274446  0.88046081  0.21945946    -0.01700
C962        C  0.48954520  0.83929347  0.22093518     0.06800
C963        C  0.52962943  0.84341689  0.23314901    -0.07700
C964        C  0.53538733  0.88827733  0.24341466     0.04300
C965        C  0.50150924  0.93302857  0.24091776    -0.14900
C966        C  0.45841346  0.92586321  0.22950894    -0.08300
C967        C  0.49003453  0.79315114  0.20912137     0.05200
C968        C  0.53333501  0.78646528  0.19810174    -0.09400
C969        C  0.53694049  0.74362124  0.18683782     0.00200
C970        C  0.49631621  0.70609319  0.18638732     0.00100
C971        C  0.45302884  0.71270101  0.19752101    -0.12900
C972        C  0.44987627  0.75536581  0.20896021     0.00500
C973        C  0.58191566  0.74076447  0.17548628     0.39900
C974        C  0.40594647  0.75859112  0.22073070     0.36500
C975        C  0.41060847  0.87848520  0.20699799     0.36200
C976        C  0.57429047  0.88309662  0.25689540     0.37000
N977        N  0.61808463  0.73893541  0.16642753    -0.43800
N978        N  0.37067329  0.76098837  0.23015180    -0.44300
N979        N  0.60537338  0.87681681  0.26765415    -0.41600
N980        N  0.37678282  0.87680553  0.19702897    -0.43100
H981        H  0.43025383  0.95751716  0.22770580     0.13100
H982        H  0.55674161  0.81065958  0.23474138     0.09600
H983        H  0.56439976  0.81531632  0.19821083     0.10600
H984        H  0.42178909  0.68407501  0.19744812     0.16500
loop_ 
_geom_bond_atom_site_label_1 
_geom_bond_atom_site_label_2 
_geom_bond_distance 
_geom_bond_site_symmetry_2 
_ccdc_geom_bond_type 
C1          C893   1.573       .  S
C1          C922   1.583       .  S
C1          C941   1.580   1_565  S
C1          C965   1.573       .  S
C2            C3   1.415   1_556  A
C2            C7   1.402       .  A
C2          C869   1.489       .  S
C3            C4   1.406       .  A
C3          C821   1.482       .  S
C4            C5   1.399   1_655  A
C4            H9   1.085       .  S
C5            C6   1.409   1_554  A
C5          C802   1.486       .  S
C6            C7   1.402   1_455  A
C6          C845   1.475       .  S
C7            H8   1.085       .  S
C10         C701   1.573   1_565  S
C10         C730   1.573       .  S
C10         C749   1.574   1_565  S
C10         C778   1.578       .  S
C11         C605   1.581       .  S
C11         C629   1.576       .  S
C11         C653   1.583   1_655  S
C11         C682   1.570       .  S
C12          C13   1.410   1_554  A
C12          C17   1.400       .  A
C12         C533   1.481       .  S
C13          C14   1.402       .  A
C13         C581   1.483       .  S
C14          C15   1.406   1_565  A
C14          H19   1.085       .  S
C15          C16   1.416   1_556  A
C15         C562   1.489       .  S
C16          C17   1.404   1_545  A
C16         C509   1.489       .  S
C17          H18   1.085       .  S
N20          N21   1.319       .  A
N20          N26   1.314       .  A
N20         Mn49   2.194       .  S
N21          C28   1.351       .  A
N22          N24   1.318       .  A
N22          N23   1.322       .  A
N22         Mn38   2.218       .  S
N23          C29   1.354       .  A
N24          N25   1.324       .  A
N24         Mn49   2.222       .  S
N25          C29   1.357       .  A
N26          N27   1.323       .  A
N26         Mn38   2.213       .  S
N27          C28   1.357       .  A
C28         C586   1.484       .  S
C29         C773   1.491       .  S
N30          N36   1.318       .  A
N30          N31   1.321       .  A
N30         Mn60   2.199       .  S
N31          C39   1.352       .  A
N32          N33   1.322       .  A
N32          N34   1.315       .  A
N32         Mn38   2.206       .  S
N33          C40   1.356       .  A
N34          N35   1.317       .  A
N34         Mn60   2.192       .  S
N35          C40   1.350       .  A
N36          N37   1.319       .  A
N36         Mn38   2.210       .  S
N37          C39   1.353       .  A
Mn38        Cl62   2.547       .  S
C39         C677   1.481       .  S
C40         C874   1.484       .  S
N41          N42   1.321       .  A
N41          N47   1.317       .  A
N41         Mn49   2.203       .  S
N42          C50   1.354       .  A
N43          N45   1.315       .  A
N43          N44   1.319       .  A
N43         Mn61   2.192       .  S
N44          C51   1.351       .  A
N45          N46   1.319       .  A
N45         Mn49   2.198       .  S
N46          C51   1.352       .  A
N47          N48   1.318       .  A
N47         Mn61   2.200       .  S
N48          C50   1.352       .  A
Mn49        Cl62   2.550       .  S
C50         C658   1.485       .  S
C51         C850   1.471       .  S
N52          N53   1.319       .  A
N52          N58   1.313       .  A
N52         Mn60   2.196       .  S
N53          C63   1.353       .  A
N54          N55   1.321       .  A
N54          N56   1.317       .  A
N54         Mn61   2.208       .  S
N55          C64   1.354       .  A
N56          N57   1.322       .  A
N56         Mn60   2.214       .  S
N57          C64   1.354       .  A
N58          N59   1.320       .  A
N58         Mn61   2.194       .  S
N59          C63   1.354       .  A
Mn60        Cl62   2.542       .  S
Mn61        Cl62   2.545       .  S
C63         C557   1.484       .  S
C64         C754   1.484       .  S
N65          N66   1.321       .  A
N65          N71   1.316       .  A
N65         Mn94   2.210       .  S
N66          C73   1.354       .  A
N67          N69   1.315       .  A
N67          N68   1.321       .  A
N67         Mn83   2.206       .  S
N68          C74   1.354       .  A
N69          N70   1.321       .  A
N69         Mn94   2.206       .  S
N70          C74   1.354       .  A
N71          N72   1.321       .  A
N71         Mn83   2.206       .  S
N72          C73   1.355       .  A
C73         C970   1.488       .  S
C74         C538   1.486       .  S
N75          N81   1.315       .  A
N75          N76   1.321       .  A
N75        Mn105   2.203       .  S
N76          C84   1.354       .  A
N77          N78   1.322       .  A
N77          N79   1.316       .  A
N77         Mn83   2.215       .  S
N78          C85   1.356       .  A
N79          N80   1.319       .  A
N79        Mn105   2.198       .  S
N80          C85   1.353       .  A
N81          N82   1.319       .  A
N81         Mn83   2.195       .  S
N82          C84   1.352       .  A
Mn83       Cl107   2.551       .  S
C84         C826   1.481       .  S
C85         C490   1.488       .  S
N86          N87   1.322       .  A
N86          N92   1.315       .  A
N86         Mn94   2.208       .  S
N87          C95   1.354       .  A
N88          N90   1.316       .  A
N88          N89   1.319       .  A
N88        Mn106   2.197       .  S
N89          C96   1.353       .  A
N90          N91   1.320       .  A
N90         Mn94   2.209       .  S
N91          C96   1.355       .  A
N92          N93   1.321       .  A
N92        Mn106   2.202       .  S
N93          C95   1.352       .  A
Mn94       Cl107   2.543       .  S
C95         C797   1.480       .  S
C96         C461   1.487       .  S
N97          N98   1.321       .  A
N97         N103   1.316       .  A
N97        Mn105   2.207       .  S
N98         C108   1.354       .  A
N99         N100   1.318       .  A
N99         N101   1.314       .  A
N99        Mn106   2.190       .  S
N100        C109   1.351       .  A
N101        N102   1.320       .  A
N101       Mn105   2.197       .  S
N102        C109   1.354       .  A
N103        N104   1.323       .  A
N103       Mn106   2.217       .  S
N104        C108   1.357       .  A
Mn105      Cl107   2.546       .  S
Mn106      Cl107   2.550       .  S
C108        C946   1.495       .  S
C109        C514   1.478       .  S
N110        N111   1.324       .  A
N110        N116   1.319   1_545  A
N110       Mn139   2.220       .  S
N111        C118   1.356       .  A
N112        N114   1.314   1_565  A
N112        N113   1.318       .  A
N112       Mn128   2.186       .  S
N113        C119   1.352   1_565  A
N114        N115   1.318       .  A
N114       Mn139   2.192       .  S
N115        C119   1.352       .  A
N116        N117   1.320       .  A
N116       Mn128   2.208       .  S
N117        C118   1.351   1_565  A
C118        C725   1.482       .  S
C119        C365   1.478       .  S
N120        N126   1.314   1_655  A
N120        N121   1.319       .  A
N120       Mn150   2.192       .  S
N121        C129   1.351   1_655  A
N122        N123   1.320       .  A
N122        N124   1.316   1_455  A
N122       Mn128   2.201       .  S
N123        C130   1.353       .  A
N124        N125   1.320       .  A
N124       Mn150   2.204       .  S
N125        C130   1.354   1_655  A
N126        N127   1.323       .  A
N126       Mn128   2.214       .  S
N127        C129   1.357       .  A
Mn128      Cl152   2.546   1_565  S
C129        C442   1.485       .  S
C130        C634   1.489       .  S
N131        N132   1.318       .  A
N131        N137   1.314   1_455  A
N131       Mn139   2.200       .  S
N132        C140   1.352       .  A
N133        N135   1.317   1_655  A
N133        N134   1.319       .  A
N133       Mn151   2.211       .  S
N134        C141   1.353   1_655  A
N135        N136   1.324       .  A
N135       Mn139   2.217       .  S
N136        C141   1.357       .  A
N137        N138   1.323       .  A
N137       Mn151   2.209       .  S
N138        C140   1.357   1_655  A
Mn139      Cl152   2.549       .  S
C140        C413   1.490       .  S
C141        C610   1.494       .  S
N142        N143   1.319       .  A
N142        N148   1.317   1_565  A
N142       Mn150   2.199       .  S
N143        C153   1.352   1_565  A
N144        N145   1.322       .  A
N144        N146   1.314   1_545  A
N144       Mn151   2.206       .  S
N145        C154   1.355       .  A
N146        N147   1.319       .  A
N146       Mn150   2.192       .  S
N147        C154   1.351   1_565  A
N148        N149   1.321       .  A
N148       Mn151   2.212       .  S
N149        C153   1.355       .  A
Mn150      Cl152   2.544   1_665  S
Mn151      Cl152   2.548   1_655  S
C153        C706   1.482       .  S
C154        C394   1.482       .  S
N155        N156   1.319       .  A
N155        N161   1.317   1_565  A
N155       Mn184   2.199       .  S
N156        C163   1.352   1_565  A
N157        N159   1.315   1_545  A
N157        N158   1.321       .  A
N157       Mn173   2.206       .  S
N158        C164   1.355       .  A
N159        N160   1.320       .  A
N159       Mn184   2.198       .  S
N160        C164   1.352   1_565  A
N161        N162   1.321       .  A
N161       Mn173   2.212       .  S
N162        C163   1.354       .  A
C163        C917   1.479       .  S
C164        C317   1.483       .  S
N165        N171   1.316   1_655  A
N165        N166   1.321       .  A
N165       Mn195   2.209       .  S
N166        C174   1.353   1_655  A
N167        N168   1.321       .  A
N167        N169   1.316   1_455  A
N167       Mn173   2.213       .  S
N168        C175   1.356   1_455  A
N169        N170   1.320       .  A
N169       Mn195   2.201       .  S
N170        C175   1.353       .  A
N171        N172   1.323       .  A
N171       Mn173   2.211       .  S
N172        C174   1.354       .  A
Mn173      Cl197   2.550       .  S
C174        C269   1.480       .  S
C175        C245   1.492       .  S
N176        N177   1.320       .  A
N176        N182   1.314   1_455  A
N176       Mn184   2.196       .  S
N177        C185   1.353       .  A
N178        N180   1.316   1_655  A
N178        N179   1.323       .  A
N178       Mn196   2.220       .  S
N179        C186   1.358   1_655  A
N180        N181   1.320       .  A
N180       Mn184   2.204       .  S
N181        C186   1.353       .  A
N182        N183   1.318       .  A
N182       Mn196   2.198       .  S
N183        C185   1.354   1_655  A
Mn184      Cl197   2.547   1_565  S
C185        C293   1.486       .  S
C186        C226   1.497       .  S
N187        N188   1.323       .  A
N187        N193   1.317   1_545  A
N187       Mn195   2.218       .  S
N188        C198   1.356       .  A
N189        N190   1.323       .  A
N189        N191   1.315   1_565  A
N189       Mn196   2.212       .  S
N190        C199   1.356   1_565  A
N191        N192   1.317       .  A
N191       Mn195   2.191       .  S
N192        C199   1.351       .  A
N193        N194   1.320       .  A
N193       Mn196   2.207       .  S
N194        C198   1.354   1_565  A
Mn195      Cl197   2.548   1_655  S
Mn196      Cl197   2.550   1_665  S
C198        C898   1.494       .  S
C199        C341   1.479       .  S
C200        C201   1.413       .  A
C200        C205   1.402       .  A
C200        C437   1.486       .  S
C201        C202   1.406       .  A
C201        C298   1.487       .  S
C202        C203   1.401       .  A
C202        H207   1.085       .  S
C203        C204   1.414       .  A
C203        C274   1.486       .  S
C204        C205   1.405       .  A
C204        C418   1.489       .  S
C205        H206   1.085       .  S
C208        C209   1.414       .  A
C208        C213   1.400       .  A
C208        C389   1.489       .  S
C209        C210   1.405       .  A
C209        C346   1.482       .  S
C210        C211   1.400       .  A
C210        H215   1.085       .  S
C211        C212   1.411       .  A
C211        C322   1.486       .  S
C212        C213   1.405       .  A
C212        C370   1.481       .  S
C213        H214   1.085       .  S
C216        C221   1.581       .  S
C216        C250   1.580       .  S
C216        C466   1.574   1_655  S
C216        C485   1.567       .  S
C217        C218   1.411   1_455  A
C217        C222   1.402       .  A
C217        C231   1.444       .  S
C218        C219   1.398       .  A
C218        C223   1.503       .  S
C219        C220   1.404       .  A
C219        H238   1.087       .  S
C220        C221   1.439       .  A
C220        C232   1.444       .  S
C221        C222   1.418   1_655  A
C222        H237   1.085       .  S
C223        C224   1.404   1_655  A
C223        C228   1.417       .  A
C224        C225   1.402       .  A
C224        H239   1.085       .  S
C225        C226   1.419       .  A
C225        C229   1.443       .  S
C226        C227   1.407   1_455  A
C227        C228   1.404       .  A
C227        H240   1.085       .  S
C228        C230   1.444       .  S
C229        N233   1.157       .  T
C230        N234   1.157       .  T
C231        N236   1.157       .  T
C232        N235   1.158       .  T
C241        C242   1.408   1_455  A
C241        C246   1.402       .  A
C241        C255   1.445       .  S
C242        C243   1.399       .  A
C242        C247   1.483       .  S
C243        C244   1.401       .  A
C243        H262   1.085       .  S
C244        C245   1.420       .  A
C244        C256   1.444       .  S
C245        C246   1.409   1_655  A
C246        H261   1.084       .  S
C247        C248   1.393   1_655  A
C247        C252   1.404       .  A
C248        C249   1.398       .  A
C248        H263   1.085       .  S
C249        C250   1.434   1_455  A
C249        C253   1.443       .  S
C250        C251   1.420       .  A
C251        C252   1.402       .  A
C251        H264   1.079       .  S
C252        C254   1.443       .  S
C253        N257   1.157       .  T
C254        N258   1.157       .  T
C255        N260   1.157       .  T
C256        N259   1.157       .  T
C265        C266   1.412   1_655  A
C265        C270   1.402       .  A
C265        C279   1.444       .  S
C266        C267   1.404       .  A
C266        C271   1.490       .  S
C267        C268   1.404       .  A
C267        H286   1.085       .  S
C268        C269   1.411       .  A
C268        C280   1.442       .  S
C269        C270   1.403   1_455  A
C270        H285   1.085       .  S
C271        C272   1.405   1_455  A
C271        C276   1.412       .  A
C272        C273   1.402       .  A
C272        H287   1.084       .  S
C273        C274   1.410   1_655  A
C273        C277   1.443       .  S
C274        C275   1.403       .  A
C275        C276   1.402       .  A
C275        H288   1.085       .  S
C276        C278   1.444       .  S
C277        N281   1.157       .  T
C278        N282   1.157       .  T
C279        N284   1.157       .  T
C280        N283   1.157       .  T
C289        C290   1.411   1_655  A
C289        C294   1.397       .  A
C289        C303   1.445       .  S
C290        C291   1.405       .  A
C290        C295   1.489       .  S
C291        C292   1.401       .  A
C291        H310   1.084       .  S
C292        C293   1.416       .  A
C292        C304   1.444       .  S
C293        C294   1.404   1_455  A
C294        H309   1.080       .  S
C295        C296   1.404   1_455  A
C295        C300   1.413       .  A
C296        C297   1.395       .  A
C296        H311   1.084       .  S
C297        C298   1.412   1_655  A
C297        C301   1.445       .  S
C298        C299   1.405       .  A
C299        C300   1.402       .  A
C299        H312   1.084       .  S
C300        C302   1.444       .  S
C301        N305   1.157       .  T
C302        N306   1.157       .  T
C303        N308   1.157       .  T
C304        N307   1.157       .  T
C313        C314   1.412       .  A
C313        C318   1.401       .  A
C313        C327   1.444       .  S
C314        C315   1.404   1_545  A
C314        C319   1.491       .  S
C315        C316   1.402       .  A
C315        H334   1.085       .  S
C316        C317   1.414   1_565  A
C316        C328   1.444       .  S
C317        C318   1.403       .  A
C318        H333   1.083       .  S
C319        C320   1.406   1_545  A
C319        C324   1.413       .  A
C320        C321   1.404       .  A
C320        H335   1.084       .  S
C321        C322   1.411   1_565  A
C321        C325   1.443       .  S
C322        C323   1.402       .  A
C323        C324   1.399       .  A
C323        H336   1.085       .  S
C324        C326   1.444       .  S
C325        N329   1.157       .  T
C326        N330   1.157       .  T
C327        N332   1.157       .  T
C328        N331   1.157       .  T
C337        C338   1.410       .  A
C337        C342   1.398       .  A
C337        C351   1.444       .  S
C338        C339   1.402   1_545  A
C338        C343   1.481       .  S
C339        C340   1.400       .  A
C339        H358   1.085       .  S
C340        C341   1.411   1_565  A
C340        C352   1.439       .  S
C341        C342   1.404       .  A
C342        H357   1.085       .  S
C343        C344   1.401   1_545  A
C343        C348   1.411       .  A
C344        C345   1.396       .  A
C344        H359   1.085       .  S
C345        C346   1.413   1_565  A
C345        C349   1.445       .  S
C346        C347   1.403       .  A
C347        C348   1.400       .  A
C347        H360   1.085       .  S
C348        C350   1.443       .  S
C349        N353   1.157       .  T
C350        N354   1.157       .  T
C351        N356   1.157       .  T
C352        N355   1.156       .  T
C361        C362   1.410       .  A
C361        C366   1.396       .  A
C361        C375   1.445       .  S
C362        C363   1.401   1_545  A
C362        C367   1.479       .  S
C363        C364   1.396       .  A
C363        H382   1.085       .  S
C364        C365   1.415   1_565  A
C364        C376   1.442       .  S
C365        C366   1.405       .  A
C366        H381   1.085       .  S
C367        C368   1.401   1_545  A
C367        C372   1.411       .  A
C368        C369   1.393       .  A
C368        H383   1.085       .  S
C369        C370   1.412   1_565  A
C369        C373   1.445       .  S
C370        C371   1.405       .  A
C371        C372   1.400       .  A
C371        H384   1.084       .  S
C372        C374   1.444       .  S
C373        N377   1.157       .  T
C374        N378   1.157       .  T
C375        N380   1.157       .  T
C376        N379   1.156       .  T
C385        C386   1.412       .  A
C385        C390   1.400       .  A
C385        C399   1.444       .  S
C386        C387   1.404   1_545  A
C386        C391   1.489       .  S
C387        C388   1.403       .  A
C387        H406   1.085       .  S
C388        C389   1.412   1_565  A
C388        C400   1.443       .  S
C389        C390   1.405       .  A
C390        H405   1.085       .  S
C391        C392   1.402   1_545  A
C391        C396   1.412       .  A
C392        C393   1.401       .  A
C392        H407   1.085       .  S
C393        C394   1.415   1_565  A
C393        C397   1.445       .  S
C394        C395   1.404       .  A
C395        C396   1.402       .  A
C395        H408   1.085       .  S
C396        C398   1.444       .  S
C397        N401   1.157       .  T
C398        N402   1.157       .  T
C399        N404   1.157       .  T
C400        N403   1.157       .  T
C409        C410   1.412   1_655  A
C409        C414   1.403       .  A
C409        C423   1.445       .  S
C410        C411   1.402       .  A
C410        C415   1.491       .  S
C411        C412   1.399       .  A
C411        H430   1.085       .  S
C412        C413   1.418       .  A
C412        C424   1.444       .  S
C413        C414   1.407   1_455  A
C414        H429   1.084       .  S
C415        C416   1.404   1_455  A
C415        C420   1.414       .  A
C416        C417   1.398       .  A
C416        H431   1.084       .  S
C417        C418   1.414   1_655  A
C417        C421   1.445       .  S
C418        C419   1.404       .  A
C419        C420   1.400       .  A
C419        H432   1.084       .  S
C420        C422   1.444       .  S
C421        N425   1.157       .  T
C422        N426   1.157       .  T
C423        N428   1.157       .  T
C424        N427   1.157       .  T
C433        C434   1.413   1_655  A
C433        C438   1.403       .  A
C433        C447   1.443       .  S
C434        C435   1.405       .  A
C434        C439   1.491       .  S
C435        C436   1.399       .  A
C435        H454   1.085       .  S
C436        C437   1.410       .  A
C436        C448   1.444       .  S
C437        C438   1.404   1_455  A
C438        H453   1.085       .  S
C439        C440   1.404   1_455  A
C439        C444   1.411       .  A
C440        C441   1.402       .  A
C440        H455   1.085       .  S
C441        C442   1.415   1_655  A
C441        C445   1.444       .  S
C442        C443   1.402       .  A
C443        C444   1.401       .  A
C443        H456   1.081       .  S
C444        C446   1.444       .  S
C445        N449   1.157       .  T
C446        N450   1.157       .  T
C447        N452   1.157       .  T
C448        N451   1.157       .  T
C457        C458   1.410       .  A
C457        C462   1.401       .  A
C457        C471   1.444       .  S
C458        C459   1.404       .  A
C458        C463   1.489       .  S
C459        C460   1.400       .  A
C459        H478   1.086       .  S
C460        C461   1.417       .  A
C460        C472   1.444       .  S
C461        C462   1.406       .  A
C462        H477   1.085       .  S
C463        C464   1.399       .  A
C463        C468   1.404       .  A
C464        C465   1.403       .  A
C464        H479   1.088       .  S
C465        C466   1.430       .  A
C465        C469   1.442       .  S
C466        C467   1.423       .  A
C467        C468   1.396       .  A
C467        H480   1.085       .  S
C468        C470   1.445       .  S
C469        N473   1.157       .  T
C470        N474   1.157       .  T
C471        N476   1.157       .  T
C472        N475   1.158       .  T
C481        C482   1.400       .  A
C481        C486   1.396       .  A
C481        C495   1.444       .  S
C482        C483   1.398       .  A
C482        C487   1.484       .  S
C483        C484   1.405       .  A
C483        H502   1.086       .  S
C484        C485   1.434       .  A
C484        C496   1.441       .  S
C485        C486   1.423       .  A
C486        H501   1.084       .  S
C487        C488   1.402       .  A
C487        C492   1.407       .  A
C488        C489   1.402       .  A
C488        H503   1.085       .  S
C489        C490   1.415       .  A
C489        C493   1.444       .  S
C490        C491   1.408       .  A
C491        C492   1.400       .  A
C491        H504   1.084       .  S
C492        C494   1.444       .  S
C493        N497   1.157       .  T
C494        N498   1.157       .  T
C495        N500   1.157       .  T
C496        N499   1.158   1_655  T
C505        C506   1.410       .  A
C505        C510   1.402       .  A
C505        C519   1.443       .  S
C506        C507   1.401       .  A
C506        C511   1.482       .  S
C507        C508   1.396       .  A
C507        H526   1.085       .  S
C508        C509   1.415       .  A
C508        C520   1.445       .  S
C509        C510   1.406       .  A
C510        H525   1.084       .  S
C511        C512   1.402       .  A
C511        C516   1.411       .  A
C512        C513   1.399       .  A
C512        H527   1.085       .  S
C513        C514   1.414       .  A
C513        C517   1.445       .  S
C514        C515   1.404       .  A
C515        C516   1.398       .  A
C515        H528   1.085       .  S
C516        C518   1.444       .  S
C517        N521   1.158       .  T
C518        N522   1.157       .  T
C519        N524   1.157       .  T
C520        N523   1.157       .  T
C529        C530   1.415       .  A
C529        C534   1.396       .  A
C529        C543   1.444       .  S
C530        C531   1.406       .  A
C530        C535   1.491       .  S
C531        C532   1.402       .  A
C531        H550   1.084       .  S
C532        C533   1.411       .  A
C532        C544   1.443       .  S
C533        C534   1.400       .  A
C534        H549   1.085       .  S
C535        C536   1.402       .  A
C535        C540   1.413       .  A
C536        C537   1.399       .  A
C536        H551   1.085       .  S
C537        C538   1.414       .  A
C537        C541   1.440       .  S
C538        C539   1.406       .  A
C539        C540   1.402       .  A
C539        H552   1.085       .  S
C540        C542   1.444       .  S
C541        N545   1.156       .  T
C542        N546   1.157       .  T
C543        N548   1.157       .  T
C544        N547   1.157   1_554  T
C553        C554   1.411       .  A
C553        C558   1.399       .  A
C553        C567   1.444       .  S
C554        C555   1.403       .  A
C554        C559   1.486       .  S
C555        C556   1.402       .  A
C555        H574   1.085       .  S
C556        C557   1.416       .  A
C556        C568   1.445       .  S
C557        C558   1.405       .  A
C558        H573   1.085       .  S
C559        C560   1.401       .  A
C559        C564   1.412       .  A
C560        C561   1.397       .  A
C560        H575   1.085       .  S
C561        C562   1.414       .  A
C561        C565   1.445       .  S
C562        C563   1.406       .  A
C563        C564   1.405       .  A
C563        H576   1.084       .  S
C564        C566   1.444       .  S
C565        N569   1.157       .  T
C566        N570   1.157       .  T
C567        N572   1.157       .  T
C568        N571   1.158       .  T
C577        C578   1.411       .  A
C577        C582   1.396       .  A
C577        C591   1.444       .  S
C578        C579   1.405       .  A
C578        C583   1.487       .  S
C579        C580   1.404       .  A
C579        H598   1.085       .  S
C580        C581   1.412       .  A
C580        C592   1.443       .  S
C581        C582   1.401       .  A
C582        H597   1.085       .  S
C583        C584   1.404       .  A
C583        C588   1.411       .  A
C584        C585   1.402       .  A
C584        H599   1.085       .  S
C585        C586   1.412       .  A
C585        C589   1.442       .  S
C586        C587   1.405       .  A
C587        C588   1.401       .  A
C587        H600   1.085       .  S
C588        C590   1.444       .  S
C589        N593   1.157       .  T
C590        N594   1.157       .  T
C591        N596   1.157       .  T
C592        N595   1.157   1_556  T
C601        C602   1.407   1_455  A
C601        C606   1.402       .  A
C601        C615   1.443       .  S
C602        C603   1.398       .  A
C602        C607   1.496       .  S
C603        C604   1.401       .  A
C603        H622   1.085       .  S
C604        C605   1.434       .  A
C604        C616   1.441       .  S
C605        C606   1.421   1_655  A
C606        H621   1.084       .  S
C607        C608   1.405   1_655  A
C607        C612   1.412       .  A
C608        C609   1.405       .  A
C608        H623   1.085       .  S
C609        C610   1.416       .  A
C609        C613   1.441       .  S
C610        C611   1.408   1_455  A
C611        C612   1.401       .  A
C611        H624   1.084       .  S
C612        C614   1.445       .  S
C613        N617   1.157       .  T
C614        N618   1.157       .  T
C615        N620   1.157       .  T
C616        N619   1.157       .  T
C625        C626   1.406   1_455  A
C625        C630   1.399       .  A
C625        C639   1.446       .  S
C626        C627   1.399       .  A
C626        C631   1.495       .  S
C627        C628   1.403       .  A
C627        H646   1.085       .  S
C628        C629   1.433       .  A
C628        C640   1.443       .  S
C629        C630   1.421   1_655  A
C630        H645   1.076       .  S
C631        C632   1.405   1_655  A
C631        C636   1.413       .  A
C632        C633   1.401       .  A
C632        H647   1.084       .  S
C633        C634   1.417       .  A
C633        C637   1.444       .  S
C634        C635   1.405   1_455  A
C635        C636   1.401       .  A
C635        H648   1.084       .  S
C636        C638   1.444       .  S
C637        N641   1.158       .  T
C638        N642   1.157       .  T
C639        N644   1.157       .  T
C640        N643   1.157       .  T
C649        C650   1.406       .  A
C649        C654   1.399       .  A
C649        C663   1.446       .  S
C650        C651   1.397       .  A
C650        C655   1.488       .  S
C651        C652   1.399       .  A
C651        H670   1.086       .  S
C652        C653   1.434       .  A
C652        C664   1.443       .  S
C653        C654   1.422       .  A
C654        H669   1.077       .  S
C655        C656   1.404       .  A
C655        C660   1.410       .  A
C656        C657   1.400       .  A
C656        H671   1.085       .  S
C657        C658   1.415       .  A
C657        C661   1.443       .  S
C658        C659   1.407       .  A
C659        C660   1.398       .  A
C659        H672   1.084       .  S
C660        C662   1.445       .  S
C661        N665   1.157       .  T
C662        N666   1.157       .  T
C663        N668   1.157       .  T
C664        N667   1.157   1_455  T
C673        C674   1.413       .  A
C673        C678   1.401       .  A
C673        C687   1.443       .  S
C674        C675   1.403       .  A
C674        C679   1.488       .  S
C675        C676   1.400       .  A
C675        H694   1.085       .  S
C676        C677   1.414       .  A
C676        C688   1.444       .  S
C677        C678   1.403       .  A
C678        H693   1.085       .  S
C679        C680   1.397       .  A
C679        C684   1.404       .  A
C680        C681   1.401       .  A
C680        H695   1.086       .  S
C681        C682   1.434       .  A
C681        C685   1.442       .  S
C682        C683   1.423       .  A
C683        C684   1.401       .  A
C683        H696   1.084       .  S
C684        C686   1.444       .  S
C685        N689   1.158       .  T
C686        N690   1.157       .  T
C687        N692   1.157       .  T
C688        N691   1.157       .  T
C697        C698   1.407       .  A
C697        C702   1.399       .  A
C697        C711   1.445       .  S
C698        C699   1.400   1_545  A
C698        C703   1.492       .  S
C699        C700   1.403       .  A
C699        H718   1.085       .  S
C700        C701   1.431   1_565  A
C700        C712   1.444       .  S
C701        C702   1.419       .  A
C702        H717   1.078       .  S
C703        C704   1.405   1_545  A
C703        C708   1.413       .  A
C704        C705   1.402       .  A
C704        H719   1.085       .  S
C705        C706   1.413   1_565  A
C705        C709   1.445       .  S
C706        C707   1.405       .  A
C707        C708   1.401       .  A
C707        H720   1.085       .  S
C708        C710   1.444       .  S
C709        N713   1.158       .  T
C710        N714   1.157       .  T
C711        N716   1.157       .  T
C712        N715   1.157       .  T
C721        C722   1.410       .  A
C721        C726   1.401       .  A
C721        C735   1.444       .  S
C722        C723   1.404   1_565  A
C722        C727   1.488       .  S
C723        C724   1.403       .  A
C723        H742   1.085       .  S
C724        C725   1.410       .  A
C724        C736   1.442       .  S
C725        C726   1.406   1_545  A
C726        H741   1.085       .  S
C727        C728   1.396   1_565  A
C727        C732   1.406       .  A
C728        C729   1.401       .  A
C728        H743   1.085       .  S
C729        C730   1.434   1_545  A
C729        C733   1.444       .  S
C730        C731   1.419       .  A
C731        C732   1.401       .  A
C731        H744   1.078       .  S
C732        C734   1.444       .  S
C733        N737   1.158       .  T
C734        N738   1.157       .  T
C735        N740   1.157       .  T
C736        N739   1.157       .  T
C745        C746   1.408       .  A
C745        C750   1.403       .  A
C745        C759   1.443       .  S
C746        C747   1.399       .  A
C746        C751   1.496       .  S
C747        C748   1.401       .  A
C747        H766   1.086       .  S
C748        C749   1.433       .  A
C748        C760   1.445       .  S
C749        C750   1.417       .  A
C750        H765   1.083       .  S
C751        C752   1.407       .  A
C751        C756   1.413       .  A
C752        C753   1.405       .  A
C752        H767   1.084       .  S
C753        C754   1.412       .  A
C753        C757   1.444       .  S
C754        C755   1.404       .  A
C755        C756   1.401       .  A
C755        H768   1.085       .  S
C756        C758   1.444       .  S
C757        N761   1.157       .  T
C758        N762   1.157       .  T
C759        N764   1.157       .  T
C760        N763   1.158       .  T
C769        C770   1.413       .  A
C769        C774   1.405       .  A
C769        C783   1.444       .  S
C770        C771   1.407       .  A
C770        C775   1.500       .  S
C771        C772   1.406       .  A
C771        H790   1.085       .  S
C772        C773   1.413       .  A
C772        C784   1.442       .  S
C773        C774   1.407       .  A
C774        H789   1.085       .  S
C775        C776   1.401       .  A
C775        C780   1.407       .  A
C776        C777   1.408       .  A
C776        H791   1.085       .  S
C777        C778   1.435       .  A
C777        C781   1.444       .  S
C778        C779   1.417       .  A
C779        C780   1.402       .  A
C779        H792   1.081       .  S
C780        C782   1.444       .  S
C781        N785   1.158       .  T
C782        N786   1.157       .  T
C783        N788   1.157       .  T
C784        N787   1.157       .  T
C793        C794   1.410       .  A
C793        C798   1.403       .  A
C793        C807   1.444       .  S
C794        C795   1.404       .  A
C794        C799   1.487       .  S
C795        C796   1.401       .  A
C795        H814   1.085       .  S
C796        C797   1.411       .  A
C796        C808   1.444       .  S
C797        C798   1.402       .  A
C798        H813   1.081       .  S
C799        C800   1.403       .  A
C799        C804   1.412       .  A
C800        C801   1.402       .  A
C800        H815   1.085       .  S
C801        C802   1.411       .  A
C801        C805   1.443       .  S
C802        C803   1.403       .  A
C803        C804   1.401       .  A
C803        H816   1.084       .  S
C804        C806   1.444       .  S
C805        N809   1.157       .  T
C806        N810   1.157       .  T
C807        N812   1.157       .  T
C808        N811   1.157       .  T
C817        C818   1.413       .  A
C817        C822   1.402       .  A
C817        C831   1.444       .  S
C818        C819   1.402       .  A
C818        C823   1.484       .  S
C819        C820   1.394       .  A
C819        H838   1.085       .  S
C820        C821   1.411       .  A
C820        C832   1.445       .  S
C821        C822   1.404       .  A
C822        H837   1.084       .  S
C823        C824   1.404       .  A
C823        C828   1.411       .  A
C824        C825   1.401       .  A
C824        H839   1.085       .  S
C825        C826   1.414       .  A
C825        C829   1.444       .  S
C826        C827   1.405       .  A
C827        C828   1.398       .  A
C827        H840   1.085       .  S
C828        C830   1.445       .  S
C829        N833   1.157       .  T
C830        N834   1.157       .  T
C831        N836   1.157       .  T
C832        N835   1.157       .  T
C841        C842   1.413       .  A
C841        C846   1.397       .  A
C841        C855   1.444       .  S
C842        C843   1.403       .  A
C842        C847   1.481       .  S
C843        C844   1.397       .  A
C843        H862   1.085       .  S
C844        C845   1.409       .  A
C844        C856   1.444       .  S
C845        C846   1.401       .  A
C846        H861   1.085       .  S
C847        C848   1.403       .  A
C847        C852   1.410       .  A
C848        C849   1.397       .  A
C848        H863   1.085       .  S
C849        C850   1.410       .  A
C849        C853   1.444       .  S
C850        C851   1.404       .  A
C851        C852   1.400       .  A
C851        H864   1.084       .  S
C852        C854   1.444       .  S
C853        N857   1.157       .  T
C854        N858   1.157       .  T
C855        N860   1.157       .  T
C856        N859   1.157       .  T
C865        C866   1.411       .  A
C865        C870   1.400       .  A
C865        C879   1.444       .  S
C866        C867   1.404       .  A
C866        C871   1.487       .  S
C867        C868   1.401       .  A
C867        H886   1.085       .  S
C868        C869   1.412       .  A
C868        C880   1.442       .  S
C869        C870   1.405       .  A
C870        H885   1.085       .  S
C871        C872   1.401       .  A
C871        C876   1.412       .  A
C872        C873   1.398       .  A
C872        H887   1.085       .  S
C873        C874   1.417       .  A
C873        C877   1.444       .  S
C874        C875   1.405       .  A
C875        C876   1.401       .  A
C875        H888   1.083       .  S
C876        C878   1.444       .  S
C877        N881   1.157       .  T
C878        N882   1.157       .  T
C879        N884   1.157       .  T
C880        N883   1.157       .  T
C889        C890   1.405       .  A
C889        C894   1.404       .  A
C889        C903   1.444       .  S
C890        C891   1.394   1_545  A
C890        C895   1.489       .  S
C891        C892   1.400       .  A
C891        H910   1.085       .  S
C892        C893   1.433       .  A
C892        C904   1.442       .  S
C893        C894   1.421   1_565  A
C894        H909   1.078       .  S
C895        C896   1.402   1_545  A
C895        C900   1.409       .  A
C896        C897   1.402       .  A
C896        H911   1.085       .  S
C897        C898   1.418   1_565  A
C897        C901   1.444       .  S
C898        C899   1.409       .  A
C899        C900   1.404       .  A
C899        H912   1.084       .  S
C900        C902   1.443       .  S
C901        N905   1.158       .  T
C902        N906   1.157       .  T
C903        N908   1.157       .  T
C904        N907   1.157       .  T
C913        C914   1.409       .  A
C913        C918   1.400       .  A
C913        C927   1.444       .  S
C914        C915   1.402   1_545  A
C914        C919   1.482   1_545  S
C915        C916   1.402       .  A
C915        H934   1.085       .  S
C916        C917   1.413   1_565  A
C916        C928   1.443       .  S
C917        C918   1.404       .  A
C918        H933   1.085       .  S
C919        C920   1.395       .  A
C919        C924   1.400   1_565  A
C920        C921   1.403       .  A
C920        H935   1.086       .  S
C921        C922   1.433       .  A
C921        C925   1.442       .  S
C922        C923   1.425   1_565  A
C923        C924   1.398       .  A
C923        H936   1.080       .  S
C924        C926   1.445       .  S
C925        N929   1.157       .  T
C926        N930   1.157       .  T
C927        N932   1.157       .  T
C928        N931   1.157       .  T
C937        C938   1.401       .  A
C937        C942   1.398       .  A
C937        C951   1.444       .  S
C938        C939   1.398       .  A
C938        C943   1.487       .  S
C939        C940   1.407       .  A
C939        H958   1.085       .  S
C940        C941   1.436       .  A
C940        C952   1.442   1_545  S
C941        C942   1.423       .  A
C942        H957   1.084       .  S
C943        C944   1.401       .  A
C943        C948   1.408       .  A
C944        C945   1.405       .  A
C944        H959   1.085       .  S
C945        C946   1.420       .  A
C945        C949   1.444       .  S
C946        C947   1.408       .  A
C947        C948   1.402       .  A
C947        H960   1.084       .  S
C948        C950   1.444       .  S
C949        N953   1.158       .  T
C950        N954   1.157       .  T
C951        N956   1.157       .  T
C952        N955   1.158       .  T
C961        C962   1.406       .  A
C961        C966   1.403       .  A
C961        C975   1.444       .  S
C962        C963   1.396       .  A
C962        C967   1.490       .  S
C963        C964   1.402       .  A
C963        H982   1.086       .  S
C964        C965   1.437       .  A
C964        C976   1.443       .  S
C965        C966   1.422       .  A
C966        H981   1.084       .  S
C967        C968   1.403       .  A
C967        C972   1.411       .  A
C968        C969   1.400       .  A
C968        H983   1.085       .  S
C969        C970   1.416       .  A
C969        C973   1.444       .  S
C970        C971   1.407       .  A
C971        C972   1.405       .  A
C971        H984   1.084       .  S
C972        C974   1.443       .  S
C973        N977   1.157       .  T
C974        N978   1.157       .  T
C975        N980   1.157       .  T
C976        N979   1.158       .  T
