geometry optimzed in LAMMPS
_audit_creation_date              2020-12-01 
_audit_creation_method            'lammps2cif' 
_symmetry_space_group_name_H-M    'P1' 
_symmetry_Int_Tables_number       1 
_symmetry_cell_setting            triclinic 
loop_ 
_symmetry_equiv_pos_as_xyz 
  x,y,z 
_cell_length_a                    34.27261822 
_cell_length_b                    34.57350478421944 
_cell_length_c                    27.299744273168848 
_cell_angle_alpha                 89.93291031976925 
_cell_angle_beta                  90.23971853830076 
_cell_angle_gamma                 90.23777091736191 
loop_ 
_atom_site_label 
_atom_site_type_symbol 
_atom_site_fract_x 
_atom_site_fract_y 
_atom_site_fract_z 
_atom_site_charge 
C1          C  0.28510772  0.49310505  0.64187227     0.79700
N2          N  0.25054791  0.49346021  0.66635369    -0.78600
C3          C  0.21602202  0.49140511  0.64155430     0.82100
N4          N  0.21527171  0.99190002  0.59700103    -0.78600
C5          C  0.24882891  0.99379208  0.57118487     0.82200
N6          N  0.28336115  0.99706539  0.59524468    -0.80300
C7          C  0.21483146  0.48773213  0.43942449     0.79700
N8          N  0.21560485  0.48768723  0.48914218    -0.78600
C9          C  0.24999323  0.48711223  0.51381576     0.82100
N10         N  0.28388359  0.48681498  0.48866494    -0.78600
C11         C  0.28373192  0.48702052  0.43897171     0.82200
N12         N  0.24907981  0.48776863  0.41449906    -0.80300
In13       In  0.49854937  0.49655595  0.29092987     1.36900
C14         C  0.43119963  0.49571015  0.33770987     0.77100
O15         O  0.99467297  0.06572194  0.28780869    -0.61400
O16         O  0.50685930  0.03424923  0.22560693    -0.52300
C17         C  0.06626551  0.49790094  0.33791648     0.69700
O18         O  0.03514057  0.48818023  0.35917211    -0.47200
C19         C  0.49440482  0.42976165  0.24279031     0.74400
O20         O  0.46303522  0.50436878  0.35826572    -0.59000
O21         O  0.48783291  0.46193331  0.22273367    -0.49100
O22         O  0.43393477  0.48819898  0.29267528    -0.55500
C23         C  0.49806068  0.06569283  0.24591638     0.84600
O24         O  0.06154756  0.50886542  0.29421774    -0.57300
O25         O  0.00442829  0.43438065  0.29081945    -0.60600
In26       In  0.00188921  0.49932466  0.79254080     1.36900
C27         C  0.50106705  0.06367592  0.84164974     0.77100
O28         O  0.06664668  0.50772235  0.79053872    -0.61400
O29         O  0.03762131  0.98991021  0.73081582    -0.52300
C30         C  0.00431287  0.43150616  0.83844195     0.69700
O31         O  0.50792470  0.46182929  0.86513368    -0.47200
C32         C  0.43151723  0.49879486  0.75061703     0.74400
O33         O  0.99248268  0.03397024  0.86512769    -0.59000
O34         O  0.46303328  0.50882994  0.73038980    -0.49100
O35         O  0.50643401  0.06132012  0.79602572    -0.55500
C36         C  0.06941066  0.50111491  0.74534972     0.84600
O37         O  0.01072765  0.43490575  0.79319643    -0.57300
O38         O  0.43555687  0.48887916  0.79470979    -0.60600
C39         C  0.49367913  0.28116918  0.14375965     0.79700
N40         N  0.49442820  0.28054639  0.09403039    -0.78600
C41         C  0.49549926  0.24652714  0.06942984     0.82100
N42         N  0.49586985  0.21276543  0.09471133    -0.78600
C43         C  0.49493111  0.21281083  0.14443419     0.82200
N44         N  0.49389878  0.24710362  0.16864013    -0.80300
C45         C  0.01382921  0.28393097  0.93903093     0.79700
N46         N  0.01228830  0.24946171  0.91496167    -0.78600
C47         C  0.01146696  0.21545746  0.94022426     0.82100
N48         N  0.49816139  0.21253068  0.99096570    -0.78600
C49         C  0.49725610  0.24638755  0.01584583     0.82200
N50         N  0.49863748  0.28023723  0.99093346    -0.80300
C51         C  0.50810740  0.13510741  0.84138496    -0.26800
C52         C  0.50067464  0.10113925  0.86801373    -0.14900
C53         C  0.99763279  0.10737402  0.92084521     0.35700
C54         C  0.00049561  0.14396206  0.94243352    -0.26300
C55         C  0.00864249  0.17735248  0.91463782    -0.15500
C56         C  0.50859243  0.17144397  0.86412804     0.36800
N57         N  0.51752426  0.20490915  0.83534050    -0.89800
H58         H  0.51398470  0.13360252  0.80245798     0.17900
H59         H  0.99616165  0.14604187  0.98163245     0.17900
N60         N  0.98954468  0.07513433  0.95226246    -0.88800
H61         H  0.49710166  0.20660812  0.80685588     0.35300
H62         H  0.54508258  0.20110549  0.81983212     0.40400
H63         H  0.01242728  0.05534526  0.94970248     0.40000
H64         H  0.96349802  0.06205636  0.94093296     0.34900
C65         C  0.49850109  0.35826609  0.84147915    -0.26800
C66         C  0.00616254  0.39394696  0.86449109    -0.14900
C67         C  0.99681802  0.39055657  0.91470620     0.35700
C68         C  0.00023690  0.35451279  0.93789745    -0.26300
C69         C  0.01223862  0.32139287  0.91226127    -0.15500
C70         C  0.49808862  0.32170882  0.86371997     0.36800
N71         N  0.49264963  0.28821257  0.83369587    -0.89800
H72         H  0.49475793  0.36002320  0.80210224     0.17900
H73         H  0.99263285  0.35229623  0.97626713     0.17900
N74         N  0.98377508  0.42350157  0.94220429    -0.88800
H75         H  0.51504142  0.28765421  0.80780679     0.35300
H76         H  0.46614357  0.29100641  0.81494702     0.40400
H77         H  0.97992245  0.41636634  0.97906268     0.40000
H78         H  0.95618161  0.43102455  0.92876773     0.34900
C79         C  0.48429990  0.35268245  0.14356207    -0.26800
C80         C  0.49305164  0.31885313  0.17004087    -0.14900
C81         C  0.01843274  0.32647046  0.21905881     0.35700
C82         C  0.01606505  0.36240778  0.24265629    -0.26300
C83         C  0.49296185  0.39221680  0.21656868    -0.15500
C84         C  0.48418219  0.38902225  0.16597270     0.36800
N85         N  0.47516987  0.42188873  0.13606602    -0.89800
H86         H  0.47744845  0.35109947  0.10482966     0.17900
H87         H  0.02361876  0.36404766  0.28119087     0.17900
N88         N  0.03189662  0.29358474  0.24609775    -0.88800
H89         H  0.49896100  0.44090405  0.13649782     0.35300
H90         H  0.45063078  0.43564007  0.15036410     0.40400
H91         H  0.01341642  0.28959303  0.27607934     0.40000
H92         H  0.05983207  0.29982790  0.25951657     0.34900
C93         C  0.51369281  0.14351078  0.14939947    -0.26800
C94         C  0.49624021  0.17569642  0.17160546    -0.14900
C95         C  0.99625329  0.17686529  0.21997952     0.35700
C96         C  0.99583625  0.14053536  0.24306000    -0.26300
C97         C  0.49874780  0.10339021  0.22018089    -0.15500
C98         C  0.51521674  0.10761624  0.17319426     0.36800
N99         N  0.53383258  0.07572555  0.14949754    -0.89800
H100        H  0.52657144  0.14616827  0.11335548     0.17900
H101        H  0.99007829  0.13916680  0.28202409     0.17900
N102        N  0.98805794  0.21065208  0.24834270    -0.88800
H103        H  0.56270575  0.08362009  0.14215395     0.35300
H104        H  0.51968002  0.07086494  0.11604470     0.40400
H105        H  0.00841901  0.21219619  0.27690204     0.40000
H106        H  0.96035468  0.20735861  0.26374123     0.34900
C107        C  0.35466210  0.50177864  0.43729752    -0.26800
C108        C  0.32125621  0.48837990  0.41243401    -0.14900
C109        C  0.31995904  0.99818668  0.36399371     0.35700
C110        C  0.35602960  0.99874787  0.34003047    -0.26300
C111        C  0.39375074  0.49383483  0.36408366    -0.15500
C112        C  0.39073959  0.50441328  0.41378553     0.36800
N113        N  0.42409215  0.51787827  0.44071846    -0.89800
H114        H  0.35290305  0.51066918  0.47527068     0.17900
H115        H  0.35673950  0.00575808  0.30133914     0.17900
N116        N  0.28534392  0.00704733  0.33669074    -0.88800
H117        H  0.42826631  0.49946652  0.47068864     0.35300
H118        H  0.41795853  0.54549800  0.45412698     0.40400
H119        H  0.28283003  0.98716375  0.30800782     0.40000
H120        H  0.28861314  0.03463227  0.32147799     0.34900
C121        C  0.17501039  0.50670622  0.36647504    -0.26800
C122        C  0.17698912  0.48905077  0.41283843    -0.14900
C123        C  0.14250347  0.47381049  0.43373548     0.35700
C124        C  0.10694836  0.47755888  0.40859217    -0.26300
C125        C  0.10482002  0.49561246  0.36260301    -0.15500
C126        C  0.13932804  0.51025924  0.34135667     0.36800
N127        N  0.13833303  0.52930489  0.29475198    -0.89800
H128        H  0.20115035  0.51860669  0.34997742     0.17900
H129        H  0.08071367  0.46578621  0.42495498     0.17900
N130        N  0.13787186  0.96319653  0.48839852    -0.88800
H131        H  0.15701288  0.51458237  0.27109494     0.34300
H132        H  0.14923530  0.55736907  0.29934775     0.40400
H133        H  0.16011342  0.42889977  0.47543751     0.40000
H134        H  0.11570448  0.44502074  0.49045442     0.34900
C135        C  0.10764437  0.48544967  0.67136332    -0.26800
C136        C  0.10702308  0.50041497  0.71903999    -0.14900
C137        C  0.14230289  0.51265984  0.74114608     0.35700
C138        C  0.17745720  0.50872261  0.71542082    -0.26300
C139        C  0.17822339  0.49330249  0.66785577    -0.15500
C140        C  0.14270055  0.48128354  0.64570132     0.36800
N141        N  0.14646044  0.95262139  0.60938121    -0.89800
H142        H  0.08066264  0.47589546  0.65434515     0.17900
H143        H  0.20435617  0.51844151  0.73245108     0.17900
N144        N  0.14245134  0.52921568  0.78943580    -0.88800
H145        H  0.11359362  0.45791578  0.58652948     0.35300
H146        H  0.15660439  0.43764040  0.60012207     0.40400
H147        H  0.12763258  0.55554954  0.78741774     0.40000
H148        H  0.16058752  0.01768812  0.81590839     0.34900
C149        C  0.39167022  0.51288727  0.67632755    -0.26800
C150        C  0.39335802  0.49825498  0.72429690    -0.14900
C151        C  0.35857353  0.99960954  0.74972905     0.35700
C152        C  0.32363977  0.99905960  0.72284818    -0.26300
C153        C  0.32274331  0.49559439  0.66923733    -0.15500
C154        C  0.35719492  0.51165649  0.64867484     0.36800
N155        N  0.35823914  0.52781079  0.60033251    -0.89800
H156        H  0.41755597  0.52524902  0.65973957     0.17900
H157        H  0.29656834  0.99587011  0.74282531     0.17900
N158        N  0.35609138  0.99615668  0.80191893    -0.88800
H159        H  0.33640532  0.54871235  0.59717477     0.35300
H160        H  0.35350631  0.50583849  0.57474714     0.40400
H161        H  0.36910223  0.02049265  0.81789061     0.40000
H162        H  0.37094474  0.97127182  0.81296461     0.34900
C163        C  0.28487698  0.99871157  0.64490060     0.79700
N164        N  0.25080894  0.99665873  0.67040016    -0.78600
C165        C  0.21593922  0.99301250  0.64665634     0.82100
N166        N  0.21641660  0.48927191  0.59203658    -0.78600
C167        C  0.25046838  0.48841318  0.56731618     0.82200
N168        N  0.28470259  0.49024299  0.59227803    -0.80300
C169        C  0.21221484  0.98748462  0.44362579     0.79700
N170        N  0.21318488  0.98985998  0.49330825    -0.78600
C171        C  0.24782406  0.99180411  0.51756732     0.82100
N172        N  0.28163000  0.99172805  0.49196191    -0.78600
C173        C  0.28114848  0.98960101  0.44230824     0.82200
N174        N  0.24636052  0.98740600  0.41860098    -0.80300
In175      In  0.49566235  0.99789110  0.29207535     1.36900
C176        C  0.42826854  0.99328133  0.33894171     0.77100
O177        O  0.99613886  0.56395245  0.29485457    -0.61400
O178        O  0.50942288  0.53457590  0.22623429    -0.52300
C179        C  0.06597172  0.99467578  0.33585437     0.69700
O180        O  0.03357994  0.99142119  0.35715235    -0.47200
C181        C  0.49273214  0.93034396  0.24609088     0.74400
O182        O  0.46079481  0.98863017  0.35969212    -0.59000
O183        O  0.48608403  0.96211434  0.22510503    -0.49100
O184        O  0.43033937  0.00043410  0.29370690    -0.55500
C185        C  0.49949534  0.56544405  0.24708162     0.84600
O186        O  0.06313518  0.00093516  0.29051168    -0.57300
O187        O  0.99950331  0.93579060  0.28779133    -0.60600
In188      In  0.00146990  0.99705724  0.79866188     1.36900
C189        C  0.49709018  0.56454786  0.84443247     0.77100
O190        O  0.06687271  0.00146899  0.79755613    -0.61400
O191        O  0.03735100  0.49399210  0.72440203    -0.52300
C192        C  0.00175207  0.92920071  0.84580023     0.69700
O193        O  0.51436121  0.96042109  0.86133206    -0.47200
C194        C  0.43320768  0.00137222  0.75038769     0.74400
O195        O  0.00981313  0.53424206  0.86045632    -0.59000
O196        O  0.46511952  0.00235217  0.72748945    -0.49100
O197        O  0.50357486  0.56228256  0.79903058    -0.55500
C198        C  0.06978640  0.99526030  0.75229616     0.84600
O199        O  0.98995529  0.93307311  0.80241169    -0.57300
O200        O  0.43716402  0.99822431  0.79609367    -0.60600
C201        C  0.49563932  0.78197918  0.14744754     0.79700
N202        N  0.49560509  0.78159074  0.09766925    -0.78600
C203        C  0.49545671  0.74769206  0.07281006     0.82100
N204        N  0.49533132  0.71387184  0.09794770    -0.78600
C205        C  0.49528305  0.71366517  0.14772862     0.82200
N206        N  0.49548169  0.74785820  0.17220999    -0.80300
C207        C  0.99838429  0.78088530  0.94461919     0.79700
N208        N  0.99913602  0.74681504  0.92001100    -0.78600
C209        C  0.99793340  0.71249442  0.94428642     0.82100
N210        N  0.49480067  0.71367924  0.99419287    -0.78600
C211        C  0.49557320  0.74761596  0.01905966     0.82200
N212        N  0.49674023  0.78147498  0.99396294    -0.80300
C213        C  0.49931209  0.63631985  0.84368717    -0.26800
C214        C  0.49546073  0.60205279  0.87084344    -0.14900
C215        C  0.99468472  0.60445211  0.91934083     0.35700
C216        C  0.99416792  0.64028299  0.94301010    -0.26300
C217        C  0.99859860  0.67514539  0.91692475    -0.15500
C218        C  0.49895971  0.67268681  0.86636048     0.36800
N219        N  0.50329460  0.70648066  0.83658268    -0.89800
H220        H  0.50284736  0.63506176  0.80428937     0.17900
H221        H  0.98999023  0.64062166  0.98231933     0.17900
N222        N  0.98856539  0.57045495  0.94842905    -0.88800
H223        H  0.48072490  0.70661548  0.81067944     0.35300
H224        H  0.52975579  0.70453380  0.81784857     0.40400
H225        H  0.01345185  0.55317547  0.94677386     0.40000
H226        H  0.96466588  0.55520019  0.93422126     0.34900
C227        C  0.49317402  0.85806584  0.84287817    -0.26800
C228        C  0.00167127  0.89142237  0.87145666    -0.14900
C229        C  0.01512124  0.88743352  0.92011065     0.35700
C230        C  0.01412299  0.85110148  0.94285507    -0.26300
C231        C  0.99969990  0.81833483  0.91823798    -0.15500
C232        C  0.49118811  0.82205933  0.86636159     0.36800
N233        N  0.48075521  0.78873645  0.83812881    -0.89800
H234        H  0.48732388  0.85944822  0.80387239     0.17900
H235        H  0.02479677  0.84864322  0.98015117     0.17900
N236        N  0.02963461  0.92010900  0.94686801    -0.88800
H237        H  0.50099136  0.78595816  0.80981093     0.35300
H238        H  0.45332936  0.79353152  0.82237548     0.40400
H239        H  0.05826402  0.91417535  0.95782773     0.40000
H240        H  0.01270663  0.92325272  0.97838077     0.34900
C241        C  0.48205213  0.85249606  0.14836455    -0.26800
C242        C  0.49472395  0.81948879  0.17382208    -0.14900
C243        C  0.00071481  0.82499414  0.22171256     0.35700
C244        C  0.00067718  0.86164794  0.24364968    -0.26300
C245        C  0.49229422  0.89262046  0.22041187    -0.15500
C246        C  0.48046434  0.88865503  0.17089126     0.36800
N247        N  0.46620177  0.92044723  0.14238756    -0.89800
H248        H  0.47278116  0.85030118  0.11046874     0.17900
H249        H  0.00834181  0.86381845  0.28210287     0.17900
N250        N  0.01182914  0.79214080  0.25039224    -0.88800
H251        H  0.48822257  0.94127671  0.13926145     0.35300
H252        H  0.44203104  0.93230144  0.16005073     0.40400
H253        H  0.99294166  0.79022446  0.28028653     0.40000
H254        H  0.04003486  0.79694198  0.26386949     0.34900
C255        C  0.51021416  0.64350958  0.15000519    -0.26800
C256        C  0.49609241  0.67626821  0.17443497    -0.14900
C257        C  0.98459734  0.67492233  0.22747182     0.35700
C258        C  0.98567324  0.63868873  0.25078034    -0.26300
C259        C  0.49891698  0.60339173  0.22180852    -0.15500
C260        C  0.51182296  0.60740486  0.17306338     0.36800
N261        N  0.52682075  0.57498718  0.14660512    -0.89800
H262        H  0.52056371  0.64582021  0.11265998     0.17900
H263        H  0.98630579  0.63761837  0.29045392     0.17900
N264        N  0.98351569  0.70912060  0.25689015    -0.88800
H265        H  0.55531043  0.58157854  0.13578701     0.35300
H266        H  0.50984181  0.57122573  0.11503786     0.40400
H267        H  0.00807140  0.70921002  0.27975072     0.40000
H268        H  0.95871063  0.70773594  0.27900462     0.34900
C269        C  0.35316732  0.98136524  0.43974930    -0.26800
C270        C  0.31832886  0.98968921  0.41464584    -0.14900
C271        C  0.32454185  0.47677948  0.36311714     0.35700
C272        C  0.36051389  0.48008337  0.33930320    -0.26300
C273        C  0.39080091  0.99098153  0.36541249    -0.15500
C274        C  0.38914675  0.98173415  0.41570700     0.36800
N275        N  0.42382515  0.97255915  0.44272345    -0.89800
H276        H  0.35267186  0.97427017  0.47841094     0.17900
H277        H  0.36248036  0.47114632  0.30136230     0.17900
N278        N  0.29187253  0.46053238  0.33738973    -0.88800
H279        H  0.42052431  0.94478824  0.45738798     0.35300
H280        H  0.42637220  0.99206394  0.47181011     0.40400
H281        H  0.29947453  0.43275916  0.32578202     0.40000
H282        H  0.28660597  0.47743160  0.30630022     0.34900
C283        C  0.17449952  0.99790299  0.36663654    -0.26800
C284        C  0.17456918  0.98692625  0.41625551    -0.14900
C285        C  0.13881525  0.97665164  0.43855378     0.35700
C286        C  0.10394905  0.97938088  0.41141369    -0.26300
C287        C  0.10384701  0.99149975  0.36223641    -0.15500
C288        C  0.13973444  0.00046295  0.33947686     0.36800
N289        N  0.14095152  0.01274552  0.28915562    -0.89800
H290        H  0.20166359  0.00571291  0.34902740     0.17900
H291        H  0.07662497  0.97180867  0.42885444     0.17900
N292        N  0.14363094  0.45400871  0.48006646    -0.88800
H293        H  0.16974514  0.01657797  0.27758319     0.34300
H294        H  0.12784059  0.03997119  0.28719564     0.40400
H295        H  0.15269461  0.93684000  0.48973029     0.40000
H296        H  0.10923217  0.95742653  0.49935187     0.34900
C297        C  0.10966839  0.97547097  0.68084335    -0.26800
C298        C  0.10760959  0.99407213  0.72639047    -0.14900
C299        C  0.14160682  0.01105281  0.74631100     0.35700
C300        C  0.17675359  0.00956888  0.72027878    -0.26300
C301        C  0.17880257  0.99145951  0.67437241    -0.15500
C302        C  0.14493062  0.97343295  0.65492060     0.36800
N303        N  0.14215881  0.46414936  0.59771391    -0.89800
H304        H  0.08375144  0.96188817  0.66569793     0.17900
H305        H  0.20235301  0.02356686  0.73566481     0.17900
N306        N  0.14044735  0.03079753  0.79236625    -0.88800
H307        H  0.11900280  0.94144920  0.60013449     0.35300
H308        H  0.16479712  0.92886388  0.61459596     0.40400
H309        H  0.14936469  0.05940626  0.78669026     0.40000
H310        H  0.17091426  0.53573863  0.80073136     0.34900
C311        C  0.39432459  0.00716105  0.67391927    -0.26800
C312        C  0.39471886  0.00306096  0.72502167    -0.14900
C313        C  0.35880178  0.48269769  0.74509829     0.35700
C314        C  0.32420159  0.48182068  0.71764381    -0.26300
C315        C  0.32321457  0.00164890  0.67132233    -0.15500
C316        C  0.35958062  0.00638912  0.64692785     0.36800
N317        N  0.36286537  0.01038215  0.59486997    -0.89800
H318        H  0.42153643  0.01037987  0.65421219     0.17900
H319        H  0.29830881  0.46947061  0.73423670     0.17900
N320        N  0.35774371  0.46697468  0.79363902    -0.88800
H321        H  0.34655287  0.03421579  0.58335596     0.35300
H322        H  0.35280249  0.98510454  0.57800142     0.40400
H323        H  0.36548230  0.48864452  0.81854815     0.40000
H324        H  0.37764042  0.44420219  0.79597429     0.34900
C325        C  0.78483951  0.48509313  0.64534002     0.79700
N326        N  0.75099329  0.48395319  0.67124442    -0.78600
C327        C  0.71603542  0.47955702  0.64804176     0.82100
N328        N  0.71750914  0.00200326  0.59332848    -0.78600
C329        C  0.75108761  0.00545988  0.56770943     0.82200
N330        N  0.78585459  0.00441269  0.59170607    -0.80300
C331        C  0.71240553  0.47478694  0.44449473     0.79700
N332        N  0.71328364  0.47473433  0.49427611    -0.78600
C333        C  0.74779663  0.47512463  0.51877439     0.82100
N334        N  0.78163666  0.47578493  0.49337147    -0.78600
C335        C  0.78144794  0.47590445  0.44368636     0.82200
N336        N  0.74669677  0.47564796  0.41957488    -0.80300
In337      In  0.99648241  0.49874340  0.29461955     1.36900
C338        C  0.92886120  0.49344300  0.34234166     0.77100
O339        O  0.48801336  0.06229661  0.29006055    -0.61400
O340        O  0.00686087  0.03671584  0.22167320    -0.52300
C341        C  0.56655785  0.49039736  0.33757124     0.69700
O342        O  0.53413001  0.48710787  0.35872077    -0.47200
C343        C  0.00217393  0.43284718  0.24473382     0.74400
O344        O  0.95932113  0.50736931  0.36143641    -0.59000
O345        O  0.99747343  0.46527414  0.22453171    -0.49100
O346        O  0.93308404  0.48280845  0.29865298    -0.55500
C347        C  0.00138376  0.06864525  0.24262163     0.84600
O348        O  0.56403803  0.49781754  0.29246512    -0.57300
O349        O  0.50275683  0.43207893  0.28768828    -0.60600
In350      In  0.50043629  0.49739780  0.79704233     1.36900
C351        C  0.00150379  0.06526408  0.84423015     0.77100
O352        O  0.56599157  0.50437185  0.79623400    -0.61400
O353        O  0.53978556  0.98590434  0.72792762    -0.52300
C354        C  0.50246404  0.42996546  0.84374162     0.69700
O355        O  0.99656507  0.46286015  0.85956403    -0.47200
C356        C  0.93262304  0.49680023  0.74849579     0.74400
O357        O  0.49635120  0.03153600  0.86257381    -0.59000
O358        O  0.96357504  0.50566186  0.72629210    -0.49100
O359        O  0.00961732  0.06153163  0.79941192    -0.55500
C360        C  0.56976241  0.49202041  0.75313470     0.84600
O361        O  0.49594511  0.43290048  0.79843408    -0.57300
O362        O  0.93737753  0.48990509  0.79339125    -0.60600
C363        C  0.00930055  0.28571286  0.14240867     0.79700
N364        N  0.01164591  0.28522483  0.09269540    -0.78600
C365        C  0.01166669  0.25117492  0.06801300     0.82100
N366        N  0.00903156  0.21748355  0.09313915    -0.78600
C367        C  0.00644012  0.21725321  0.14273955     0.82200
N368        N  0.00661681  0.25157241  0.16708229    -0.80300
C369        C  0.50093110  0.28068564  0.94130624     0.79700
N370        N  0.50179776  0.24645698  0.91675944    -0.78600
C371        C  0.50043755  0.21217418  0.94128022     0.82100
N372        N  0.01182831  0.21646010  0.98999683    -0.78600
C373        C  0.01323204  0.25057514  0.01435665     0.82200
N374        N  0.01420456  0.28409330  0.98878037    -0.80300
C375        C  0.01100629  0.13657616  0.84182520    -0.26800
C376        C  0.00301514  0.10329346  0.86965503    -0.14900
C377        C  0.49351561  0.10403432  0.91895671     0.35700
C378        C  0.49358775  0.14030754  0.94143462    -0.26300
C379        C  0.50092095  0.17444942  0.91483653    -0.15500
C380        C  0.01383544  0.17326313  0.86356623     0.36800
N381        N  0.02247524  0.20600207  0.83333832    -0.89800
H382        H  0.01532479  0.13425414  0.80264068     0.17900
H383        H  0.48771114  0.14152722  0.98036291     0.17900
N384        N  0.48604224  0.07093956  0.94918282    -0.88800
H385        H  0.00073821  0.20809911  0.80648379     0.35300
H386        H  0.04904613  0.20102320  0.81580429     0.40400
H387        H  0.51013479  0.05254399  0.94786163     0.40000
H388        H  0.46126055  0.05656858  0.93596686     0.34900
C389        C  0.01844139  0.36100507  0.83886171    -0.26800
C390        C  0.50331917  0.39213288  0.86915772    -0.14900
C391        C  0.50840609  0.38907072  0.92026933     0.35700
C392        C  0.50789891  0.35255726  0.94259980    -0.26300
C393        C  0.50248485  0.31849547  0.91508282    -0.15500
C394        C  0.02172165  0.32498030  0.86218856     0.36800
N395        N  0.03555974  0.29251563  0.83493271    -0.89800
H396        H  0.02602234  0.36318795  0.80045485     0.17900
H397        H  0.51173192  0.35112738  0.98197114     0.17900
N398        N  0.51387056  0.42284674  0.94990774    -0.88800
H399        H  0.06320274  0.29937642  0.82130702     0.35300
H400        H  0.01680798  0.28826256  0.80508601     0.40400
H401        H  0.54051118  0.42023583  0.96840912     0.40000
H402        H  0.49166638  0.42350983  0.97603602     0.34900
C403        C  0.99750042  0.35691795  0.14341360    -0.26800
C404        C  0.00850551  0.32331395  0.16894595    -0.14900
C405        C  0.50165512  0.32204304  0.22055193     0.35700
C406        C  0.50136317  0.35841563  0.24312378    -0.26300
C407        C  0.00467587  0.39589449  0.21726518    -0.15500
C408        C  0.99561833  0.39289842  0.16668900     0.36800
N409        N  0.98394908  0.42553900  0.13784994    -0.89800
H410        H  0.98982039  0.35531784  0.10492007     0.17900
H411        H  0.50826627  0.36009029  0.28184207     0.17900
N412        N  0.51156315  0.28872738  0.24917787    -0.88800
H413        H  0.00654355  0.44593007  0.13789786     0.35300
H414        H  0.95894452  0.43761962  0.15329146     0.40400
H415        H  0.49171207  0.28657945  0.27805198     0.40000
H416        H  0.53936726  0.29308370  0.26412661     0.34900
C417        C  0.00990675  0.14515277  0.14278754    -0.26800
C418        C  0.00408780  0.17956492  0.16926067    -0.14900
C419        C  0.48025238  0.17159224  0.21890689     0.35700
C420        C  0.48180657  0.13567110  0.24272794    -0.26300
C421        C  0.00234407  0.10636339  0.21660425    -0.15500
C422        C  0.00888677  0.10888490  0.16572507     0.36800
N423        N  0.01434900  0.07476445  0.13686820    -0.89800
H424        H  0.01548391  0.14609735  0.10377114     0.17900
H425        H  0.46893483  0.13294348  0.27876442     0.17900
N426        N  0.46129054  0.20336359  0.24240620    -0.88800
H427        H  0.04145042  0.07685095  0.11960615     0.35300
H428        H  0.99274265  0.07412749  0.10971133     0.40400
H429        H  0.47538453  0.20846403  0.27582996     0.40000
H430        H  0.43249483  0.19520252  0.24979314     0.34900
C431        C  0.85207744  0.49253515  0.44234882    -0.26800
C432        C  0.81893405  0.47924340  0.41678394    -0.14900
C433        C  0.82033858  0.99754851  0.36056239     0.35700
C434        C  0.85661719  0.99634777  0.33675849    -0.26300
C435        C  0.89133736  0.48932466  0.36861785    -0.15500
C436        C  0.88796886  0.49763264  0.41892775     0.36800
N437        N  0.92085434  0.51114560  0.44668740    -0.89800
H438        H  0.85024316  0.49959516  0.48090988     0.17900
H439        H  0.85783070  0.98549350  0.29957444     0.17900
N440        N  0.78619379  0.98399865  0.33535404    -0.88800
H441        H  0.92574656  0.49169019  0.47539607     0.35300
H442        H  0.91369542  0.53791429  0.46192990     0.40400
H443        H  0.79079670  0.95524849  0.32511284     0.40000
H444        H  0.78280222  0.00041912  0.30344693     0.34900
C445        C  0.67504788  0.48517530  0.36688430    -0.26800
C446        C  0.67466362  0.47668961  0.41732324    -0.14900
C447        C  0.63823006  0.47151394  0.44067729     0.35700
C448        C  0.60356812  0.47605124  0.41387463    -0.26300
C449        C  0.60410483  0.48548368  0.36386074    -0.15500
C450        C  0.64034092  0.48961285  0.34013994     0.36800
N451        N  0.64224623  0.49860733  0.28897254    -0.89800
H452        H  0.70245623  0.48910361  0.34786253     0.17900
H453        H  0.57600279  0.47218688  0.43260277     0.17900
N454        N  0.63679061  0.01958655  0.49203848    -0.88800
H455        H  0.65782212  0.47665824  0.27155299     0.34300
H456        H  0.65787358  0.52444385  0.28493484     0.40400
H457        H  0.62062556  0.43535216  0.49450497     0.40000
H458        H  0.61999436  0.48284749  0.50943850     0.34900
C459        C  0.60861303  0.47024375  0.68187475    -0.26800
C460        C  0.60797054  0.48737057  0.72841939    -0.14900
C461        C  0.64354744  0.49923386  0.75000209     0.35700
C462        C  0.67852817  0.49546273  0.72379886    -0.26300
C463        C  0.67895291  0.47972989  0.67628846    -0.15500
C464        C  0.64354676  0.46574092  0.65590326     0.36800
N465        N  0.64590670  0.96767426  0.59783963    -0.89800
H466        H  0.58161196  0.46006337  0.66553028     0.17900
H467        H  0.70534847  0.50579454  0.74048348     0.17900
N468        N  0.64441752  0.51557310  0.79818534    -0.88800
H469        H  0.61454912  0.43885630  0.59910838     0.35300
H470        H  0.65863619  0.42098606  0.61276748     0.40400
H471        H  0.65668859  0.54324732  0.79585881     0.40000
H472        H  0.67427538  0.01954301  0.80977753     0.34900
C473        C  0.89106993  0.50913174  0.67558859    -0.26800
C474        C  0.89424848  0.49456613  0.72345670    -0.14900
C475        C  0.85985120  0.01115238  0.74551405     0.35700
C476        C  0.82542978  0.01062611  0.71774612    -0.26300
C477        C  0.82286466  0.48922535  0.67108555    -0.15500
C478        C  0.85608816  0.50669425  0.64924559     0.36800
N479        N  0.85529511  0.52312273  0.60103682    -0.89800
H480        H  0.91607721  0.52256669  0.65820268     0.17900
H481        H  0.79856669  0.01929205  0.73533869     0.17900
N482        N  0.85729270  0.02312393  0.79559887    -0.88800
H483        H  0.83256843  0.54314217  0.59894764     0.35300
H484        H  0.85075540  0.50111156  0.57546108     0.40400
H485        H  0.87564962  0.04698508  0.80093520     0.40000
H486        H  0.86624459  0.00033652  0.81811690     0.34900
C487        C  0.78720316  0.99984504  0.64116457     0.79700
N488        N  0.75311098  0.99643939  0.66634653    -0.78600
C489        C  0.71813362  0.99719959  0.64261009     0.82100
N490        N  0.71527940  0.47667524  0.59842038    -0.78600
C491        C  0.74880827  0.47729803  0.57233708     0.82200
N492        N  0.78341478  0.48141382  0.59594462    -0.80300
C493        C  0.71221683  0.00915797  0.44124361     0.79700
N494        N  0.71439157  0.00817627  0.49087792    -0.78600
C495        C  0.74942386  0.00868921  0.51416320     0.82100
N496        N  0.78268001  0.01000167  0.48753531    -0.78600
C497        C  0.78120663  0.01082120  0.43777855     0.82200
N498        N  0.74586708  0.01038907  0.41495830    -0.80300
In499      In  0.99751303  0.00062834  0.28907280     1.36900
C500        C  0.92899698  0.00524589  0.33491136     0.77100
O501        O  0.48970282  0.56113246  0.29118072    -0.61400
O502        O  0.98639773  0.53466856  0.22793845    -0.52300
C503        C  0.56396637  0.00033957  0.33818962     0.69700
O504        O  0.53228015  0.00877687  0.35876091    -0.47200
C505        C  0.99303017  0.93300520  0.24241475     0.74400
O506        O  0.96127958  0.01187589  0.35552044    -0.59000
O507        O  0.98827445  0.96505485  0.22128368    -0.49100
O508        O  0.93182445  0.99583445  0.29046707    -0.55500
C509        C  0.98948364  0.56668775  0.24951121     0.84600
O510        O  0.56043615  0.99073688  0.29390592    -0.57300
O511        O  0.50052497  0.93334717  0.29109592    -0.60600
In512      In  0.50271177  0.99660201  0.79463646     1.36900
C513        C  0.00086082  0.56591214  0.84080349     0.77100
O514        O  0.56771290  0.00480309  0.79262764    -0.61400
O515        O  0.53792296  0.48355737  0.73243439    -0.52300
C516        C  0.50311967  0.92921150  0.84219669     0.69700
O517        O  0.01338300  0.96021002  0.86507831    -0.47200
C518        C  0.93336163  0.00016658  0.75081777     0.74400
O519        O  0.49234478  0.53228709  0.86505087    -0.59000
O520        O  0.96559356  0.99516151  0.72971589    -0.49100
O521        O  0.99296419  0.56358965  0.79573731    -0.55500
C522        C  0.57149803  0.99508228  0.74852537     0.84600
O523        O  0.49234785  0.93247684  0.79820778    -0.57300
O524        O  0.93627355  0.00427682  0.79656298    -0.60600
C525        C  0.99051620  0.78289674  0.14634906     0.79700
N526        N  0.99293212  0.78158688  0.09675097    -0.78600
C527        C  0.99258329  0.74729047  0.07273017     0.82100
N528        N  0.98964362  0.71393894  0.09854019    -0.78600
C529        C  0.98698074  0.71446141  0.14823922     0.82200
N530        N  0.98748358  0.74914808  0.17183145    -0.80300
C531        C  0.49711009  0.78172695  0.94418857     0.79700
N532        N  0.49645215  0.74742455  0.91983197    -0.78600
C533        C  0.49522786  0.71320130  0.94440478     0.82100
N534        N  0.99585897  0.71268110  0.99412065    -0.78600
C535        C  0.99519230  0.74664521  0.01910710     0.82200
N536        N  0.99657809  0.78050547  0.99419529    -0.80300
C537        C  0.00389277  0.63742223  0.84172632    -0.26800
C538        C  0.99995766  0.60282446  0.86799774    -0.14900
C539        C  0.49060471  0.60474397  0.92226981     0.35700
C540        C  0.49032430  0.64103962  0.94484309    -0.26300
C541        C  0.49471125  0.67545289  0.91778615    -0.15500
C542        C  0.00332493  0.67334971  0.86540899     0.36800
N543        N  0.00764361  0.70769615  0.83656200    -0.89800
H544        H  0.00778496  0.63668859  0.80234782     0.17900
H545        H  0.48674009  0.64205361  0.98423036     0.17900
N546        N  0.48613556  0.57138388  0.95293502    -0.88800
H547        H  0.98520324  0.70815203  0.81047961     0.35300
H548        H  0.03420037  0.70619155  0.81798535     0.40400
H549        H  0.51078704  0.55393979  0.94939471     0.40000
H550        H  0.46128320  0.55607014  0.94178272     0.34900
C551        C  0.98732738  0.85865940  0.84677853    -0.26800
C552        C  0.50220658  0.89188816  0.86886231    -0.14900
C553        C  0.50928323  0.88939992  0.91971225     0.35700
C554        C  0.50762465  0.85333106  0.94324649    -0.26300
C555        C  0.49871076  0.81925239  0.91723894    -0.15500
C556        C  0.98594079  0.82238566  0.86971830     0.36800
N557        N  0.96928864  0.79019367  0.84400329    -0.89800
H558        H  0.97654012  0.86118538  0.80954748     0.17900
H559        H  0.51337812  0.85222216  0.98227599     0.17900
N560        N  0.51762649  0.92338005  0.94792100    -0.88800
H561        H  0.98498708  0.78632979  0.81163855     0.35300
H562        H  0.94057512  0.79717656  0.83451013     0.40400
H563        H  0.54471445  0.91970108  0.96500762     0.40000
H564        H  0.49645571  0.92571139  0.97522651     0.34900
C565        C  0.98198346  0.85460746  0.14467738    -0.26800
C566        C  0.99092790  0.82106608  0.17167318    -0.14900
C567        C  0.50592423  0.82322302  0.22345313     0.35700
C568        C  0.50463568  0.85957730  0.24609697    -0.26300
C569        C  0.99169200  0.89512477  0.21675350    -0.15500
C570        C  0.98238213  0.89129080  0.16633446     0.36800
N571        N  0.97316137  0.92381680  0.13592592    -0.89800
H572        H  0.97445945  0.85248027  0.10617638     0.17900
H573        H  0.51376848  0.86188455  0.28404199     0.17900
N574        N  0.51928039  0.79051678  0.25097256    -0.88800
H575        H  0.99711041  0.94262987  0.13535000     0.35300
H576        H  0.94898980  0.93799074  0.15054380     0.40400
H577        H  0.50113819  0.78719617  0.28140244     0.40000
H578        H  0.54748598  0.79650168  0.26368215     0.34900
C579        C  0.98381375  0.64239886  0.14883154    -0.26800
C580        C  0.98475017  0.67712550  0.17566781    -0.14900
C581        C  0.48309299  0.67234952  0.22325581     0.35700
C582        C  0.48463991  0.63606905  0.24640884    -0.26300
C583        C  0.98620183  0.60424626  0.22365282    -0.15500
C584        C  0.98437993  0.60632083  0.17211203     0.36800
N585        N  0.98375756  0.57191873  0.14290189    -0.89800
H586        H  0.98314407  0.64290153  0.10916394     0.17900
H587        H  0.47429131  0.63349081  0.28373247     0.17900
N588        N  0.46751600  0.70474932  0.24922041    -0.88800
H589        H  0.00777414  0.57269093  0.11942584     0.35300
H590        H  0.95841724  0.57220751  0.12143990     0.40400
H591        H  0.48414846  0.70878469  0.28101551     0.40000
H592        H  0.43899095  0.69794316  0.25969416     0.34900
C593        C  0.85252214  0.02350187  0.43273031    -0.26800
C594        C  0.81814181  0.01098177  0.40937705    -0.14900
C595        C  0.82231763  0.47044174  0.36635793     0.35700
C596        C  0.85837939  0.47587690  0.34289554    -0.26300
C597        C  0.89105337  0.00814540  0.36067648    -0.15500
C598        C  0.88865699  0.02225052  0.40905414     0.36800
N599        N  0.92279261  0.03543345  0.43458064    -0.89800
H600        H  0.85156215  0.03432659  0.46994111     0.17900
H601        H  0.86078731  0.46918724  0.30426998     0.17900
N602        N  0.78952049  0.45559184  0.33914868    -0.88800
H603        H  0.92574243  0.01905497  0.46659685     0.35300
H604        H  0.91845124  0.06426422  0.44464063     0.40400
H605        H  0.78285883  0.42823724  0.35330562     0.40000
H606        H  0.79680062  0.45147502  0.30238355     0.34900
C607        C  0.67285198  0.99911919  0.36519295    -0.26800
C608        C  0.67374780  0.00702137  0.41571059    -0.14900
C609        C  0.63789132  0.01193582  0.44052357     0.35700
C610        C  0.60261294  0.00951710  0.41449797    -0.26300
C611        C  0.60195126  0.00185182  0.36407070    -0.15500
C612        C  0.63752579  0.99615776  0.33942122     0.36800
N613        N  0.63813431  0.98737038  0.28816850    -0.89800
H614        H  0.69973320  0.99471992  0.34528501     0.17900
H615        H  0.57552451  0.01362482  0.43413808     0.17900
N616        N  0.63596605  0.46144614  0.49149500    -0.88800
H617        H  0.65231480  0.96090272  0.28363181     0.34300
H618        H  0.65454442  0.00870714  0.27042839     0.40400
H619        H  0.62010930  0.99784858  0.50853920     0.40000
H620        H  0.62247687  0.04588192  0.49737594     0.34900
C621        C  0.61066011  0.98300300  0.67358785    -0.26800
C622        C  0.60969358  0.99454978  0.72284209    -0.14900
C623        C  0.64512212  0.00475074  0.74650550     0.35700
C624        C  0.68017657  0.00442987  0.71987848    -0.26300
C625        C  0.68089825  0.99405317  0.67018892    -0.15500
C626        C  0.64579703  0.98189219  0.64731612     0.36800
N627        N  0.64299833  0.44671759  0.60909094    -0.89800
H628        H  0.58384028  0.97434439  0.65545762     0.17900
H629        H  0.70698137  0.01329311  0.73788689     0.17900
N630        N  0.64563245  0.01542131  0.79738922    -0.88800
H631        H  0.61774435  0.95984068  0.58669611     0.35300
H632        H  0.66242450  0.94231403  0.59747934     0.40400
H633        H  0.63189573  0.04223475  0.80035427     0.40000
H634        H  0.66273744  0.49858326  0.82002074     0.34900
C635        C  0.89540182  0.98919007  0.67418491    -0.26800
C636        C  0.89562070  0.00042254  0.72365238    -0.14900
C637        C  0.86095870  0.47757948  0.74546866     0.35700
C638        C  0.82594608  0.47527371  0.71924800    -0.26300
C639        C  0.82516782  0.99970645  0.66812771    -0.15500
C640        C  0.86098316  0.98865217  0.64635151     0.36800
N641        N  0.86354935  0.97568685  0.59664138    -0.89800
H642        H  0.92230755  0.98042343  0.65675930     0.17900
H643        H  0.80101276  0.46173314  0.73664776     0.17900
N644        N  0.86168025  0.46171073  0.79395119    -0.88800
H645        H  0.85631450  0.99846315  0.57318136     0.35300
H646        H  0.84407711  0.95267749  0.59148800     0.40400
H647        H  0.86850962  0.48373221  0.81877672     0.40000
H648        H  0.88294669  0.44015673  0.79564585     0.34900
loop_ 
_geom_bond_atom_site_label_1 
_geom_bond_atom_site_label_2 
_geom_bond_distance 
_geom_bond_site_symmetry_2 
_ccdc_geom_bond_type 
C1            N2   1.363       .  A
C1          N168   1.358       .  A
C1          C153   1.490       .  S
N2            C3   1.362       .  A
C3          N166   1.354       .  A
C3          C139   1.485       .  S
N4            C5   1.353       .  A
N4          C165   1.356       .  A
C5            N6   1.356       .  A
C5          C171   1.466       .  S
N6          C163   1.358       .  A
C7            N8   1.357       .  A
C7           N12   1.359       .  A
C7          C122   1.484       .  S
N8            C9   1.355       .  A
C9           N10   1.352       .  A
C9          C167   1.461       .  S
N10          C11   1.357       .  A
C11          N12   1.361       .  A
C11         C108   1.479       .  S
In13         O20   2.226       .  S
In13         O21   2.243       .  S
In13         O22   2.233       .  S
In13        O501   2.254       .  S
In13        O178   2.232       .  S
In13        O348   2.245       .  S
In13        O342   2.236       .  S
In13        O349   2.236       .  S
C14         C111   1.475       .  S
C14          O20   1.260       .  A
C14          O22   1.261       .  A
O15        In499   2.253       .  S
O15         C347   1.260   1_655  A
O16        In175   2.240   1_545  S
O16          C23   1.259       .  A
C17         C125   1.483       .  S
C17          O24   1.261       .  A
C17          O18   1.261       .  A
O18        In337   2.231   1_455  S
C19          C83   1.484       .  S
C19          O21   1.260       .  A
C19         O349   1.260       .  A
C23          C97   1.480       .  S
C23         O339   1.260       .  A
O24        In337   2.256   1_455  S
O25        In337   2.246   1_455  S
O25         C343   1.261       .  A
In26         O28   2.238       .  S
In26         O37   2.249       .  S
In26        O191   2.234       .  S
In26        O355   2.228   1_455  S
In26        O195   2.229       .  S
In26        O358   2.242   1_455  S
In26        O521   2.246   1_455  S
In26        O362   2.234   1_455  S
C27          C52   1.483       .  S
C27          O35   1.263       .  A
C27         O357   1.259       .  A
O28          C36   1.259       .  A
O29        In188   2.247       .  S
O29         C198   1.260       .  A
C30          C66   1.481       .  S
C30          O37   1.261       .  A
C30         O355   1.258   1_455  A
O31        In350   2.242       .  S
O31         C354   1.260       .  A
C32         C150   1.490       .  S
C32          O34   1.262       .  A
C32          O38   1.258       .  A
O33        In188   2.243   1_645  S
O33         C351   1.261   1_655  A
O34        In350   2.257       .  S
O35        In512   2.241   1_545  S
C36         C136   1.479       .  S
C36         O191   1.260       .  A
O38        In350   2.242       .  S
C39          N40   1.358       .  A
C39          N44   1.359       .  A
C39          C80   1.488       .  S
N40          C41   1.356       .  A
C41          N42   1.355       .  A
C41          C49   1.464       .  S
N42          C43   1.358       .  A
C43          N44   1.359       .  A
C43          C94   1.482       .  S
C45          N46   1.362       .  A
C45         N374   1.358       .  A
C45          C69   1.487       .  S
N46          C47   1.363       .  A
C47         N372   1.359       .  A
C47          C55   1.494       .  S
N48          C49   1.355   1_556  A
N48         C371   1.359       .  A
C49          N50   1.354   1_554  A
N50         C369   1.357       .  A
C51          C52   1.403       .  A
C51          C56   1.402       .  A
C51          H58   1.084       .  S
C52         C377   1.417       .  A
C53          C54   1.399   1_655  A
C53         C376   1.418   1_655  A
C53          N60   1.433       .  S
C54          C55   1.408       .  A
C54          H59   1.084   1_455  S
C55         C380   1.414       .  A
C56         C379   1.414       .  A
C56          N57   1.431       .  S
N57          H61   1.046       .  S
N57          H62   1.046       .  S
N60          H63   1.045   1_655  S
N60          H64   1.045       .  S
C65          C70   1.402       .  A
C65         C390   1.403       .  A
C65          H72   1.084       .  S
C66          C67   1.414   1_455  A
C66         C389   1.404       .  A
C67          C68   1.402   1_655  A
C67          N74   1.439       .  S
C68          C69   1.407       .  A
C68          H73   1.083   1_455  S
C69         C394   1.412       .  A
C70         C393   1.414       .  A
C70          N71   1.431       .  S
N71          H75   1.046       .  S
N71          H76   1.046       .  S
N74          H77   1.045       .  S
N74          H78   1.047       .  S
C79          C80   1.407       .  A
C79          C84   1.398       .  A
C79          H86   1.084       .  S
C80         C405   1.413       .  A
C81          C82   1.403       .  A
C81         C404   1.413       .  A
C81          N88   1.432       .  S
C82         C407   1.405       .  A
C82          H87   1.084       .  S
C83          C84   1.417       .  A
C83         C406   1.405       .  A
C84          N85   1.432       .  S
N85          H89   1.045       .  S
N85          H90   1.045       .  S
N88          H91   1.046       .  S
N88          H92   1.045       .  S
C93          C94   1.405       .  A
C93          C98   1.401       .  A
C93         H100   1.084       .  S
C94         C419   1.412       .  A
C95          C96   1.405       .  A
C95         C418   1.414   1_655  A
C95         N102   1.432       .  S
C96         C421   1.405   1_655  A
C96         H101   1.084       .  S
C97          C98   1.411       .  A
C97         C420   1.404       .  A
C98          N99   1.433       .  S
N99         H103   1.046       .  S
N99         H104   1.046       .  S
N102        H105   1.045   1_655  S
N102        H106   1.046       .  S
C107        C108   1.406       .  A
C107        C112   1.398       .  A
C107        H114   1.084       .  S
C108        C271   1.410       .  A
C109        C110   1.401       .  A
C109        C270   1.415       .  A
C109        N116   1.432   1_565  S
C110        C273   1.403       .  A
C110        H115   1.084   1_565  S
C111        C112   1.410       .  A
C111        C272   1.404       .  A
C112        N113   1.433       .  S
N113        H117   1.046       .  S
N113        H118   1.046       .  S
N116        H119   1.046   1_545  S
N116        H120   1.046       .  S
C121        C122   1.406       .  A
C121        C126   1.405       .  A
C121        H128   1.084       .  S
C122        C123   1.414       .  A
C123        C124   1.402       .  A
C123        N292   1.438       .  S
C124        C125   1.403       .  A
C124        H129   1.083       .  S
C125        C126   1.411       .  A
C126        N127   1.432       .  S
N127        H131   1.045       .  S
N127        H132   1.046       .  S
N130        C285   1.438       .  S
N130        H295   1.046       .  S
N130        H296   1.046       .  S
H133        N292   1.046       .  S
H134        N292   1.045       .  S
C135        C136   1.401       .  A
C135        C140   1.401       .  A
C135        H142   1.084       .  S
C136        C137   1.413       .  A
C137        C138   1.404       .  A
C137        N144   1.438       .  S
C138        C139   1.405       .  A
C138        H143   1.083       .  S
C139        C140   1.418       .  A
C140        N303   1.438       .  S
N141        C302   1.438       .  S
N141        H307   1.046       .  S
N141        H308   1.046       .  S
N144        H147   1.046       .  S
N144        H310   1.046       .  S
H145        N303   1.046       .  S
H146        N303   1.045       .  S
H148        N306   1.046       .  S
C149        C150   1.404       .  A
C149        C154   1.400       .  A
C149        H156   1.084       .  S
C150        C313   1.419       .  A
C151        C152   1.402       .  A
C151        C312   1.418   1_565  A
C151        N158   1.432       .  S
C152        C315   1.409   1_565  A
C152        H157   1.083       .  S
C153        C154   1.420       .  A
C153        C314   1.405       .  A
C154        N155   1.433       .  S
N155        H159   1.046       .  S
N155        H160   1.044       .  S
N158        H161   1.045   1_565  S
N158        H162   1.045       .  S
C163        N164   1.363       .  A
C163        C315   1.499   1_565  S
N164        C165   1.363       .  A
C165        C301   1.484       .  S
N166        C167   1.351       .  A
C167        N168   1.356       .  A
C169        N170   1.359       .  A
C169        N174   1.358       .  A
C169        C284   1.488       .  S
N170        C171   1.358       .  A
C171        N172   1.356       .  A
N172        C173   1.358       .  A
C173        N174   1.356       .  A
C173        C270   1.484       .  S
In175       O339   2.244   1_565  S
In175       O510   2.235       .  S
In175       O504   2.238   1_565  S
In175       O182   2.225       .  S
In175       O183   2.231       .  S
In175       O184   2.242   1_565  S
In175       O511   2.239       .  S
C176        C273   1.478       .  S
C176        O182   1.259       .  A
C176        O184   1.261   1_565  A
O177       In337   2.255       .  S
O177        C509   1.261       .  A
O178        C185   1.259       .  A
C179        C287   1.486       .  S
C179        O186   1.260   1_565  A
C179        O180   1.260       .  A
O180       In499   2.251   1_465  S
C181        C245   1.481       .  S
C181        O183   1.259       .  A
C181        O511   1.261       .  A
C185        C259   1.482       .  S
C185        O501   1.260       .  A
O186       In499   2.249   1_455  S
O187       In499   2.243   1_565  S
O187        C505   1.261       .  A
In188       O190   2.246   1_565  S
In188       O199   2.248   1_455  S
In188       O517   2.252       .  S
In188       O520   2.245   1_455  S
In188       O359   2.245   1_565  S
In188       O524   2.250   1_465  S
C189        C214   1.486       .  S
C189        O519   1.259       .  A
C189        O197   1.263       .  A
O190        C198   1.259   1_545  A
C192        C228   1.481       .  S
C192        O199   1.257   1_455  A
C192        O517   1.257       .  A
O193       In512   2.243       .  S
O193        C516   1.258       .  A
C194        C312   1.489       .  S
C194        O196   1.262       .  A
C194        O200   1.259   1_545  A
O195        C513   1.257       .  A
O196       In512   2.245   1_545  S
O197       In350   2.246       .  S
C198        C298   1.480       .  S
O200       In512   2.248       .  S
C201        N202   1.359       .  A
C201        N206   1.359       .  A
C201        C242   1.485       .  S
N202        C203   1.355       .  A
C203        N204   1.355       .  A
C203        C211   1.467       .  S
N204        C205   1.359       .  A
C205        N206   1.359       .  A
C205        C256   1.484       .  S
C207        N208   1.357       .  A
C207        N536   1.355       .  A
C207        C231   1.481       .  S
N208        C209   1.359       .  A
C209        N534   1.363       .  A
C209        C217   1.493       .  S
N210        C533   1.359       .  A
N210        C211   1.356   1_556  A
C211        N212   1.356   1_554  A
N212        C531   1.359       .  A
C213        C214   1.403       .  A
C213        C218   1.402       .  A
C213        H220   1.084       .  S
C214        C539   1.418       .  A
C215        C538   1.415       .  A
C215        C216   1.398       .  A
C215        N222   1.433       .  S
C216        C217   1.407       .  A
C216        H221   1.083       .  S
C217        C542   1.418   1_655  A
C218        C541   1.415       .  A
C218        N219   1.430       .  S
N219        H223   1.046       .  S
N219        H224   1.045       .  S
N222        H225   1.045   1_655  S
N222        H226   1.046       .  S
C227        C552   1.401       .  A
C227        C232   1.401       .  A
C227        H234   1.084       .  S
C228        C551   1.405   1_455  A
C228        C229   1.411       .  A
C229        C230   1.401       .  A
C229        N236   1.432       .  S
C230        C231   1.405   1_455  A
C230        H235   1.084       .  S
C231        C556   1.411       .  A
C232        C555   1.415       .  A
C232        N233   1.430       .  S
N233        H237   1.046       .  S
N233        H238   1.046       .  S
N236        H239   1.046       .  S
N236        H240   1.046       .  S
C241        C242   1.405       .  A
C241        C246   1.395       .  A
C241        H248   1.084       .  S
C242        C567   1.413       .  A
C243        C566   1.412   1_455  A
C243        C244   1.402       .  A
C243        N250   1.431       .  S
C244        C569   1.405   1_455  A
C244        H249   1.084       .  S
C245        C568   1.405       .  A
C245        C246   1.416       .  A
C246        N247   1.432       .  S
N247        H251   1.045       .  S
N247        H252   1.046       .  S
N250        H253   1.046   1_455  S
N250        H254   1.046       .  S
C255        C256   1.404       .  A
C255        C260   1.399       .  A
C255        H262   1.084       .  S
C256        C581   1.413       .  A
C257        C580   1.416       .  A
C257        C258   1.405       .  A
C257        N264   1.431       .  S
C258        C583   1.403       .  A
C258        H263   1.084       .  S
C259        C582   1.406       .  A
C259        C260   1.411       .  A
C260        N261   1.432       .  S
N261        H265   1.045       .  S
N261        H266   1.046       .  S
N264        H267   1.046   1_655  S
N264        H268   1.046       .  S
C269        C270   1.405       .  A
C269        C274   1.399       .  A
C269        H276   1.083       .  S
C271        C272   1.400       .  A
C271        N278   1.432       .  S
C272        H277   1.084       .  S
C273        C274   1.411       .  A
C274        N275   1.433       .  S
N275        H279   1.046       .  S
N275        H280   1.046       .  S
N278        H281   1.046       .  S
N278        H282   1.045       .  S
C283        C284   1.406       .  A
C283        C288   1.404   1_565  A
C283        H290   1.083   1_565  S
C284        C285   1.414       .  A
C285        C286   1.407       .  A
C286        C287   1.406       .  A
C286        H291   1.083       .  S
C287        C288   1.413   1_565  A
C288        N289   1.438       .  S
N289        H293   1.045       .  S
N289        H294   1.046       .  S
C297        C298   1.403       .  A
C297        C302   1.405       .  A
C297        H304   1.084       .  S
C298        C299   1.410   1_565  A
C299        C300   1.402       .  A
C299        N306   1.432       .  S
C300        C301   1.404   1_545  A
C300        H305   1.084       .  S
C301        C302   1.417       .  A
N306        H309   1.046       .  S
C311        C312   1.402       .  A
C311        C316   1.398       .  A
C311        H318   1.084       .  S
C313        C314   1.400       .  A
C313        N320   1.432       .  S
C314        H319   1.084       .  S
C315        C316   1.424       .  A
C316        N317   1.433       .  S
N317        H321   1.045       .  S
N317        H322   1.045   1_545  S
N320        H323   1.045       .  S
N320        H324   1.045       .  S
C325        N326   1.361       .  A
C325        N492   1.355       .  A
C325        C477   1.485       .  S
N326        C327   1.361       .  A
C327        N490   1.359       .  A
C327        C463   1.489       .  S
N328        C489   1.355   1_545  A
N328        C329   1.354       .  A
C329        N330   1.358       .  A
C329        C495   1.467       .  S
N330        C487   1.360   1_545  A
C331        N332   1.359       .  A
C331        N336   1.361       .  A
C331        C446   1.490       .  S
N332        C333   1.356       .  A
C333        N334   1.354       .  A
C333        C491   1.465       .  S
N334        C335   1.356       .  A
C335        N336   1.358       .  A
C335        C432   1.487       .  S
In337       O502   2.229       .  S
In337       O344   2.250       .  S
In337       O345   2.238       .  S
In337       O346   2.242       .  S
C338        C435   1.481       .  S
C338        O344   1.259       .  A
C338        O346   1.258       .  A
O340       In499   2.245   1_455  S
O340        C347   1.259       .  A
C341        C449   1.481       .  S
C341        O348   1.260       .  A
C341        O342   1.259       .  A
C343        C407   1.485       .  S
C343        O345   1.259   1_455  A
C347        C421   1.485       .  S
In350       O352   2.259       .  S
In350       O515   2.240       .  S
In350       O361   2.235       .  S
In350       O519   2.234       .  S
C351        C376   1.488       .  S
C351        O359   1.263       .  A
O352        C360   1.260       .  A
O353       In512   2.257       .  S
O353        C522   1.261       .  A
C354        C390   1.480       .  S
C354        O361   1.260       .  A
C356        C474   1.481       .  S
C356        O358   1.260       .  A
C356        O362   1.258       .  A
O357       In512   2.226   1_545  S
C360        C460   1.485       .  S
C360        O515   1.260       .  A
C363        N364   1.360       .  A
C363        N368   1.361       .  A
C363        C404   1.489       .  S
N364        C365   1.357       .  A
C365        N366   1.354       .  A
C365        C373   1.466       .  S
N366        C367   1.357       .  A
C367        N368   1.361       .  A
C367        C418   1.492       .  S
C369        N370   1.361       .  A
C369        C393   1.491       .  S
N370        C371   1.361       .  A
C371        C379   1.492       .  S
N372        C373   1.355   1_556  A
C373        N374   1.353   1_554  A
C375        C376   1.405       .  A
C375        C380   1.404       .  A
C375        H382   1.084       .  S
C377        C378   1.397       .  A
C377        N384   1.433       .  S
C378        C379   1.407       .  A
C378        H383   1.083       .  S
C380        N381   1.431       .  S
N381        H385   1.046       .  S
N381        H386   1.046       .  S
N384        H387   1.045       .  S
N384        H388   1.045       .  S
C389        C394   1.403       .  A
C389        H396   1.084       .  S
C390        C391   1.409       .  A
C391        C392   1.401       .  A
C391        N398   1.433       .  S
C392        C393   1.409       .  A
C392        H397   1.083       .  S
C394        N395   1.431       .  S
N395        H399   1.046       .  S
N395        H400   1.046       .  S
N398        H401   1.046       .  S
N398        H402   1.046       .  S
C403        C404   1.406   1_655  A
C403        C408   1.399       .  A
C403        H410   1.084       .  S
C405        C406   1.401       .  A
C405        N412   1.432       .  S
C406        H411   1.084       .  S
C407        C408   1.418   1_455  A
C408        N409   1.433       .  S
N409        H413   1.045   1_655  S
N409        H414   1.045       .  S
N412        H415   1.046       .  S
N412        H416   1.045       .  S
C417        C418   1.408       .  A
C417        C422   1.401       .  A
C417        H424   1.083       .  S
C419        C420   1.402       .  A
C419        N426   1.432       .  S
C420        H425   1.084       .  S
C421        C422   1.410       .  A
C422        N423   1.433       .  S
N423        H427   1.045       .  S
N423        H428   1.046   1_455  S
N426        H429   1.045       .  S
N426        H430   1.046       .  S
C431        C432   1.407       .  A
C431        C436   1.399       .  A
C431        H438   1.083       .  S
C432        C595   1.416       .  A
C433        C594   1.414   1_565  A
C433        C434   1.406       .  A
C433        N440   1.432       .  S
C434        C597   1.406   1_565  A
C434        H439   1.084       .  S
C435        C596   1.405       .  A
C435        C436   1.409       .  A
C436        N437   1.433       .  S
N437        H441   1.046       .  S
N437        H442   1.046       .  S
N440        H443   1.046       .  S
N440        H444   1.046   1_565  S
C445        C446   1.408       .  A
C445        C450   1.402       .  A
C445        H452   1.083       .  S
C446        C447   1.415       .  A
C447        C448   1.402       .  A
C447        N616   1.432       .  S
C448        C449   1.404       .  A
C448        H453   1.084       .  S
C449        C450   1.410       .  A
C450        N451   1.432       .  S
N451        H455   1.046       .  S
N451        H456   1.046       .  S
N454        C609   1.432       .  S
N454        H619   1.045   1_545  S
N454        H620   1.045       .  S
H457        N616   1.046       .  S
H458        N616   1.046       .  S
C459        C460   1.403       .  A
C459        C464   1.403       .  A
C459        H466   1.083       .  S
C460        C461   1.412       .  A
C461        C462   1.405       .  A
C461        N468   1.432       .  S
C462        C463   1.407       .  A
C462        H467   1.084       .  S
C463        C464   1.416       .  A
C464        N627   1.438       .  S
N465        C626   1.438       .  S
N465        H631   1.046       .  S
N465        H632   1.046       .  S
N468        H471   1.046       .  S
N468        H634   1.046       .  S
H469        N627   1.046       .  S
H470        N627   1.045       .  S
H472        N630   1.046       .  S
C473        C474   1.404       .  A
C473        C478   1.398       .  A
C473        H480   1.084       .  S
C474        C637   1.417       .  A
C475        C636   1.417       .  A
C475        C476   1.400       .  A
C475        N482   1.432       .  S
C476        C639   1.407   1_545  A
C476        H481   1.084       .  S
C477        C638   1.404       .  A
C477        C478   1.420       .  A
C478        N479   1.433       .  S
N479        H483   1.045       .  S
N479        H484   1.044       .  S
N482        H485   1.045       .  S
N482        H486   1.045       .  S
C487        N488   1.363       .  A
C487        C639   1.492       .  S
N488        C489   1.361       .  A
C489        C625   1.488       .  S
N490        C491   1.354       .  A
C491        N492   1.355       .  A
C493        N494   1.357       .  A
C493        N498   1.361       .  A
C493        C608   1.490       .  S
N494        C495   1.356       .  A
C495        N496   1.355       .  A
N496        C497   1.359       .  A
C497        N498   1.360       .  A
C497        C594   1.487       .  S
In499       O506   2.238       .  S
In499       O507   2.244   1_545  S
In499       O508   2.257   1_545  S
C500        C597   1.485       .  S
C500        O506   1.259       .  A
C500        O508   1.261   1_545  A
O502        C509   1.258       .  A
C503        C611   1.479       .  S
C503        O510   1.259   1_545  A
C503        O504   1.260       .  A
C505        C569   1.486       .  S
C505        O507   1.260       .  A
C509        C583   1.482       .  S
In512       O514   2.245   1_565  S
In512       O523   2.246       .  S
C513        C538   1.478   1_455  S
C513        O521   1.261   1_455  A
O514        C522   1.258   1_545  A
C516        C552   1.481       .  S
C516        O523   1.260       .  A
C518        C636   1.488       .  S
C518        O520   1.261   1_545  A
C518        O524   1.261       .  A
C522        C622   1.488       .  S
C525        N526   1.358       .  A
C525        N530   1.362       .  A
C525        C566   1.490       .  S
N526        C527   1.356       .  A
C527        N528   1.354       .  A
C527        C535   1.467       .  S
N528        C529   1.360       .  A
C529        N530   1.362       .  A
C529        C580   1.493       .  S
C531        N532   1.360       .  A
C531        C555   1.492       .  S
N532        C533   1.360       .  A
C533        C541   1.495       .  S
N534        C535   1.359   1_556  A
C535        N536   1.354   1_554  A
C537        C538   1.400   1_455  A
C537        C542   1.401       .  A
C537        H544   1.084       .  S
C539        C540   1.399       .  A
C539        N546   1.432       .  S
C540        C541   1.408       .  A
C540        H545   1.083       .  S
C542        N543   1.432       .  S
N543        H547   1.046   1_455  S
N543        H548   1.045       .  S
N546        H549   1.045       .  S
N546        H550   1.045       .  S
C551        C556   1.402       .  A
C551        H558   1.084       .  S
C552        C553   1.411       .  A
C553        C554   1.403       .  A
C553        N560   1.433       .  S
C554        C555   1.408       .  A
C554        H559   1.083       .  S
C556        N557   1.432       .  S
N557        H561   1.045       .  S
N557        H562   1.046       .  S
N560        H563   1.045       .  S
N560        H564   1.046       .  S
C565        C566   1.407       .  A
C565        C570   1.400       .  A
C565        H572   1.084       .  S
C567        C568   1.402       .  A
C567        N574   1.432       .  S
C568        H573   1.084       .  S
C569        C570   1.418       .  A
C570        N571   1.433       .  S
N571        H575   1.045       .  S
N571        H576   1.045       .  S
N574        H577   1.046       .  S
N574        H578   1.046       .  S
C579        C580   1.407       .  A
C579        C584   1.399       .  A
C579        H586   1.083       .  S
C581        C582   1.405       .  A
C581        N588   1.433       .  S
C582        H587   1.084       .  S
C583        C584   1.410       .  A
C584        N585   1.433       .  S
N585        H589   1.046   1_655  S
N585        H590   1.046       .  S
N588        H591   1.046       .  S
N588        H592   1.046       .  S
C593        C594   1.404       .  A
C593        C598   1.400       .  A
C593        H600   1.084       .  S
C595        C596   1.406       .  A
C595        N602   1.438       .  S
C596        H601   1.083       .  S
C597        C598   1.411       .  A
C598        N599   1.432       .  S
N599        H603   1.046       .  S
N599        H604   1.046       .  S
N602        H605   1.046       .  S
N602        H606   1.045       .  S
C607        C608   1.406   1_565  A
C607        C612   1.401       .  A
C607        H614   1.083       .  S
C608        C609   1.417       .  A
C609        C610   1.402       .  A
C610        C611   1.402       .  A
C610        H615   1.084       .  S
C611        C612   1.410   1_545  A
C612        N613   1.432       .  S
N613        H617   1.046       .  S
N613        H618   1.045   1_565  S
C621        C622   1.404       .  A
C621        C626   1.405       .  A
C621        H628   1.083       .  S
C622        C623   1.417   1_565  A
C623        C624   1.407       .  A
C623        N630   1.438       .  S
C624        C625   1.404   1_545  A
C624        H629   1.083       .  S
C625        C626   1.416       .  A
N630        H633   1.045       .  S
C635        C636   1.406   1_565  A
C635        C640   1.401       .  A
C635        H642   1.084       .  S
C637        C638   1.397       .  A
C637        N644   1.432       .  S
C638        H643   1.084       .  S
C639        C640   1.420       .  A
C640        N641   1.433       .  S
N641        H645   1.044       .  S
N641        H646   1.046       .  S
N644        H647   1.045       .  S
N644        H648   1.045       .  S
