geometry optimzed in LAMMPS
_audit_creation_date              2020-12-01 
_audit_creation_method            'lammps2cif' 
_symmetry_space_group_name_H-M    'P1' 
_symmetry_Int_Tables_number       1 
_symmetry_cell_setting            triclinic 
loop_ 
_symmetry_equiv_pos_as_xyz 
  x,y,z 
_cell_length_a                    39.70639797 
_cell_length_b                    39.706718998289624 
_cell_length_c                    32.583181845162215 
_cell_angle_alpha                 89.99554299582357 
_cell_angle_beta                  90.0042491802744 
_cell_angle_gamma                 120.3512732027384 
loop_ 
_atom_site_label 
_atom_site_type_symbol 
_atom_site_fract_x 
_atom_site_fract_y 
_atom_site_fract_z 
_atom_site_charge 
O1          O  0.13936632  0.36063440  0.46821995    -0.77600
C2          C  0.12243783  0.24182487  0.45227760     0.83400
O3          O  0.26249003  0.37980306  0.41321499    -0.78700
O4          O  0.17739311  0.26614238  0.32692376    -0.80200
O5          O  0.09133040  0.32225244  0.32700483    -0.80000
O6          O  0.12034694  0.37965396  0.41290617    -0.78600
Zn7        Zn  0.16757444  0.33242746  0.44600014     1.55700
O8          O  0.09094606  0.26590140  0.32707500    -0.80000
Cd9        Cd  0.13997616  0.36002460  0.36338853     1.59700
Cd10       Cd  0.22323693  0.36036074  0.36339774     1.59600
O11         O  0.17774861  0.40866948  0.32700414    -0.80000
O12         O  0.16763278  0.33236794  0.38484429    -1.90500
Cd13       Cd  0.13963898  0.27676416  0.36339676     1.59900
O14         O  0.23409975  0.40905303  0.32707467    -0.80000
O15         O  0.12019771  0.23751187  0.41321313    -0.78600
C16         C  0.25817810  0.37756516  0.45227982     0.83900
C17         C  0.12242848  0.37757251  0.45196462     0.83600
O18         O  0.13936468  0.27590293  0.46841677    -0.77600
C19         C  0.07617879  0.28660318  0.31572078     0.84400
O20         O  0.22409984  0.36063860  0.46841954    -0.77700
C21         C  0.21339814  0.42382045  0.31571997     0.84500
C22         C  0.21307636  0.28692281  0.31562340     0.84800
O23         O  0.23385711  0.32260530  0.32692530    -0.80100
C24         C  0.23086183  0.26913840  0.28865627     0.04000
C25         C  0.20877366  0.22978080  0.27551381    -0.12100
C26         C  0.22589664  0.21343282  0.25046502     0.01500
C27         C  0.26443744  0.23556715  0.23843842    -0.10700
C28         C  0.28657016  0.27410719  0.25046681     0.04000
C29         C  0.27022014  0.29122766  0.27551586    -0.10100
H30         H  0.17852660  0.21186807  0.28463100     0.09600
H31         H  0.27729701  0.22270949  0.21914613     0.07100
H32         H  0.28813216  0.32147455  0.28463441     0.07000
C33         C  0.23118132  0.45946228  0.28861789     0.04000
C34         C  0.27025235  0.47651524  0.27484232    -0.12100
C35         C  0.28664625  0.00992347  0.24949937     0.01500
C36         C  0.26482860  0.02660599  0.23785655    -0.10700
C37         C  0.22648047  0.01039651  0.25053513     0.04000
C38         C  0.20935205  0.47690918  0.27585786    -0.10100
H39         H  0.28795086  0.46404635  0.28371320     0.09600
H40         H  0.27775359  0.05232498  0.21837965     0.07100
H41         H  0.17927358  0.46464866  0.28541398     0.07000
C42         C  0.04053660  0.26882054  0.28861909     0.04000
C43         C  0.02348396  0.22975047  0.27484208    -0.12100
C44         C  0.49007546  0.21335703  0.24949933     0.01500
C45         C  0.47339255  0.23517480  0.23785776    -0.10700
C46         C  0.48960207  0.27352238  0.25053768     0.04000
C47         C  0.02308945  0.29064988  0.27586050    -0.10100
H48         H  0.03595344  0.21205181  0.28371208     0.09600
H49         H  0.44767375  0.22225060  0.21838076     0.07100
H50         H  0.03534983  0.32072726  0.28541727     0.07000
C51         C  0.29377813  0.39506235  0.47932939     0.04000
C52         C  0.33161294  0.41388277  0.46164037    -0.12100
C53         C  0.36527574  0.43034646  0.48648861     0.01500
C54         C  0.36142568  0.42812455  0.52880160    -0.10700
C55         C  0.32468713  0.40988993  0.54727972     0.04000
C56         C  0.29069113  0.39328787  0.52282457    -0.10100
H57         H  0.33505014  0.41583778  0.42857935     0.09600
H58         H  0.38752399  0.44095351  0.54771137     0.07100
H59         H  0.26233954  0.37923250  0.53751110     0.07000
C60         C  0.10466288  0.39534065  0.47886266     0.04000
C61         C  0.08582758  0.41417256  0.46113196    -0.12100
C62         C  0.06905956  0.43094822  0.48597620     0.01500
C63         C  0.07100519  0.42901409  0.52830497    -0.10700
C64         C  0.08929141  0.41072958  0.54675800     0.04000
C65         C  0.10618628  0.39382631  0.52232730    -0.10100
H66         H  0.08413197  0.41586100  0.42806647     0.09600
H67         H  0.05804163  0.44198384  0.54725059     0.07100
H68         H  0.12028853  0.37972549  0.53703960     0.07000
O69         O  0.45569242  0.04431548  0.27632103    -0.77600
C70         C  0.40389501  0.46880688  0.17726966     0.83400
O71         O  0.02374031  0.11928351  0.15770725    -0.78700
O72         O  0.38711670  0.05574812  0.10971671    -0.80200
O73         O  0.35294634  0.05716176  0.25535148    -0.80000
O74         O  0.42787684  0.07213631  0.30897471    -0.78600
Zn75       Zn  0.45352328  0.04648080  0.21839240     1.55700
O76         O  0.33350857  0.01637694  0.20122721    -0.80000
Cd77       Cd  0.41291298  0.08709114  0.25295156     1.59700
Cd78       Cd  0.46924197  0.11696192  0.16714670     1.59600
O79         O  0.44283364  0.14705758  0.25534723    -0.80000
O80         O  0.42867713  0.07132696  0.20037154    -1.90500
Cd81       Cd  0.38304255  0.03076383  0.16714400     1.59900
O82         O  0.48362850  0.16649465  0.20123111    -0.80000
O83         O  0.38071970  0.47626555  0.15770617    -0.78600
C84         C  0.03119820  0.09610659  0.17726849     0.83900
C85         C  0.44621321  0.05379888  0.30936208     0.83600
O86         O  0.42994351  0.49436909  0.19990634    -0.77600
C87         C  0.32673345  0.02852097  0.23479064     0.84400
O88         O  0.00563519  0.07005757  0.19990429    -0.77700
C89         C  0.47147852  0.17327016  0.23479025     0.84500
C90         C  0.41346324  0.08654643  0.09169117     0.84800
O91         O  0.44425938  0.11289223  0.10972012    -0.80100
O92         O  0.00562452  0.43234131  0.19919026    -0.77600
C93         C  0.40400786  0.43180724  0.17711955     0.83400
O94         O  0.42810851  0.35328904  0.30869963    -0.78700
O95         O  0.33362215  0.31409917  0.20200794    -0.80200
O96         O  0.44324839  0.32676516  0.11033222    -0.80000
O97         O  0.02347785  0.40065724  0.15779035    -0.78600
Zn98       Zn  0.45366297  0.40414089  0.21790614     1.55700
O99         O  0.38662751  0.32722757  0.11020322    -0.80000
Cd100      Cd  0.46863084  0.34838925  0.16755640     1.59700
Cd101      Cd  0.41272828  0.32258073  0.25333281     1.59600
O102        O  0.48285979  0.31352184  0.20208490    -0.80000
O103        O  0.42850919  0.35396088  0.20057439    -1.90500
Cd104      Cd  0.38299589  0.34875649  0.16743406     1.59900
O105        O  0.44253063  0.29255770  0.25655330    -0.80000
O106        O  0.38072424  0.40088815  0.15770789    -0.78600
C107        C  0.44650057  0.39014270  0.30885501     0.83900
C108        C  0.03115082  0.43162016  0.17695254     0.83600
O109        O  0.43026512  0.43263777  0.19945584    -0.77600
C110        C  0.41259171  0.32235351  0.09227994     0.84400
O111        O  0.45608883  0.40912669  0.27576279    -0.77700
C112        C  0.47100452  0.29492777  0.23592946     0.84500
C113        C  0.32671242  0.29548921  0.23582982     0.84800
O114        O  0.35269760  0.29286567  0.25634200    -0.80100
O115        O  0.06736938  0.06973921  0.19945803    -0.77600
C116        C  0.06838612  0.46885440  0.17695237     0.83400
O117        O  0.14672610  0.07190210  0.30869854    -0.78700
O118        O  0.18648139  0.01714017  0.20208279    -0.80200
O119        O  0.17278932  0.11338120  0.11020393    -0.80000
O120        O  0.09911634  0.11927429  0.15770241    -0.78600
Zn121      Zn  0.09586832  0.04634194  0.21790734     1.55700
O122        O  0.17324777  0.05675878  0.11032972    -0.80000
Cd123      Cd  0.15125040  0.11700644  0.16743189     1.59700
Cd124      Cd  0.17743123  0.08727740  0.25332879     1.59600
O125        O  0.18590232  0.16637944  0.20200858    -0.80000
O126        O  0.14604757  0.07149437  0.20057214    -1.90500
Cd127      Cd  0.15161739  0.03137257  0.16755247     1.59900
O128        O  0.20714805  0.14730787  0.25633533    -0.80000
O129        O  0.09934751  0.47652755  0.15778603    -0.78600
C130        C  0.10987212  0.05350979  0.30885583     0.83900
C131        C  0.06819840  0.09599371  0.17711825     0.83600
O132        O  0.06766705  0.49438008  0.19919276    -0.77600
C133        C  0.17766497  0.08741856  0.09227967     0.84400
O134        O  0.09088690  0.04391942  0.27576439    -0.77700
C135        C  0.20451715  0.17329085  0.23582735     0.84500
C136        C  0.20507670  0.02899556  0.23592660     0.84800
O137        O  0.20745068  0.05747172  0.25654880    -0.80100
O138        O  0.47606355  0.02395215  0.33839708    -0.77600
C139        C  0.08573749  0.04160864  0.34551443     0.83400
O140        O  0.45267538  0.40194939  0.38216532    -0.78700
O141        O  0.06960300  0.48742053  0.46143787    -0.80200
O142        O  0.01298644  0.07869254  0.46189873    -0.80000
O143        O  0.45227034  0.04774304  0.38285379    -0.78600
Zn144      Zn  0.00064397  0.49937022  0.36160610     1.55700
O145        O  0.06979792  0.07875460  0.46168027    -0.80000
Cd146      Cd  0.47241552  0.02759545  0.43199762     1.59700
Cd147      Cd  0.47247441  0.44150702  0.43179296     1.59600
O148        O  0.42131557  0.48702392  0.46189483    -0.80000
O149        O  0.00101937  0.49899170  0.41715592    -1.90500
Cd150      Cd  0.05850414  0.02753451  0.43179416     1.59900
O151        O  0.42125133  0.43021192  0.46167506    -0.80000
O152        O  0.09806518  0.04733537  0.38216728    -0.78600
C153        C  0.45840343  0.41427762  0.34551269     0.83900
C154        C  0.45826058  0.04175406  0.34608340     0.83600
O155        O  0.04990526  0.02411806  0.33797365    -0.77600
C156        C  0.04970016  0.09516154  0.46891042     0.84400
O157        O  0.47589550  0.45010971  0.33797179    -0.77700
C158        C  0.40484470  0.45031003  0.46890471     0.84500
C159        C  0.04932280  0.45068485  0.46845803     0.84800
O160        O  0.01258694  0.43040530  0.46143692    -0.80100
C161        C  0.10494436  0.20622670  0.47932818     0.04000
C162        C  0.08612174  0.16839130  0.46164192    -0.12100
C163        C  0.06966512  0.13473057  0.48649277     0.01500
C164        C  0.07189682  0.13858362  0.52880554    -0.10700
C165        C  0.09013247  0.17532358  0.54728011     0.04000
C166        C  0.10672650  0.20931688  0.52282244    -0.10100
H167        H  0.08416032  0.16495209  0.42858148     0.09600
H168        H  0.05907328  0.11248709  0.54771774     0.07100
H169        H  0.12078245  0.23766947  0.53750680     0.07000
O170        O  0.02663010  0.47338760  0.83876370    -0.77600
C171        C  0.41691189  0.45573120  0.84586173     0.83400
O172        O  0.05002541  0.09543074  0.88251038    -0.78700
O173        O  0.43305358  0.00995857  0.96165347    -0.80200
O174        O  0.48968015  0.41863349  0.96215783    -0.80000
O175        O  0.05042636  0.44959703  0.88322214    -0.78600
Zn176      Zn  0.00203792  0.49798300  0.86195320     1.55700
O177        O  0.43287382  0.41858746  0.96193533    -0.80000
Cd178      Cd  0.03026950  0.46975669  0.93233881     1.59700
Cd179      Cd  0.03020103  0.05584912  0.93211893     1.59600
O180        O  0.08139534  0.01034682  0.96215340    -0.80000
O181        O  0.00166234  0.49836270  0.91749792    -1.90500
Cd182      Cd  0.44417576  0.46982612  0.93212104     1.59900
O183        O  0.08144248  0.06715309  0.96192955    -0.80000
O184        O  0.40459011  0.45000007  0.88251396    -0.78600
C185        C  0.04429372  0.08310823  0.84585867     0.83900
C186        C  0.04443571  0.45558412  0.84645050     0.83600
O187        O  0.45274796  0.47322563  0.83832539    -0.77600
C188        C  0.45295766  0.40215632  0.96910977     0.84400
O189        O  0.02679771  0.04727229  0.83832280    -0.77700
C190        C  0.09787369  0.04706931  0.96910369     0.84500
C191        C  0.45332341  0.04670534  0.96860565     0.84800
O192        O  0.49007026  0.06697457  0.96165160    -0.80100
O193        O  0.04699755  0.45302980  0.77669318    -0.77600
C194        C  0.09871613  0.02854220  0.67764795     0.83400
O195        O  0.47894536  0.37818133  0.65801537    -0.78700
O196        O  0.11544455  0.44171493  0.60982944    -0.80200
O197        O  0.14970489  0.44019789  0.75551744    -0.80000
O198        O  0.07481864  0.42520096  0.80931116    -0.78600
Zn199      Zn  0.04914961  0.45088123  0.71877507     1.55700
O200        O  0.16909913  0.48093897  0.70134494    -0.80000
Cd201      Cd  0.08974511  0.41028492  0.75321578     1.59700
Cd202      Cd  0.03342845  0.38048382  0.66734208     1.59600
O203        O  0.05984253  0.35032553  0.75551199    -0.80000
O204        O  0.07397442  0.42605628  0.70063460    -1.90500
Cd205      Cd  0.11954741  0.46660030  0.66733905     1.59900
O206        O  0.01909090  0.33093286  0.70134853    -0.80000
O207        O  0.12185117  0.02108302  0.65801269    -0.78600
C208        C  0.47148717  0.40131823  0.67764810     0.83900
C209        C  0.05648232  0.44353969  0.80972479     0.83600
O210        O  0.07270786  0.00299033  0.70032585    -0.77600
C211        C  0.17589946  0.46880434  0.73490320     0.84400
O212        O  0.49703991  0.42732677  0.70032485    -0.77700
C213        C  0.03123212  0.32413160  0.73490168     0.84500
C214        C  0.08909139  0.41093442  0.59178533     0.84800
O215        O  0.05831206  0.38458304  0.60983284    -0.80100
O216        O  0.49702475  0.06503850  0.69957791    -0.77600
C217        C  0.09859108  0.06552520  0.67749090     0.83400
O218        O  0.07458155  0.14410467  0.80901004    -0.78700
O219        O  0.16895154  0.18328903  0.70207493    -0.80200
O220        O  0.05927673  0.17040552  0.61040172    -0.80000
O221        O  0.47917714  0.09667029  0.65807461    -0.78600
Zn222      Zn  0.04897968  0.09322626  0.71826411     1.55700
O223        O  0.11586051  0.16989272  0.61027415    -0.80000
Cd224      Cd  0.03400381  0.14892584  0.66772627     1.59700
Cd225      Cd  0.08988844  0.17475552  0.75357017     1.59600
O226        O  0.01981344  0.18385430  0.70217739    -0.80000
O227        O  0.07410183  0.14337104  0.70081412    -1.90500
Cd228      Cd  0.11954891  0.14852862  0.66760540     1.59900
O229        O  0.06007630  0.20476627  0.75671011    -0.80000
O230        O  0.12183628  0.09641303  0.65801609    -0.78600
C231        C  0.05618582  0.10724878  0.80919418     0.83900
C232        C  0.47150683  0.06574307  0.67730694     0.83600
O233        O  0.07235813  0.06470873  0.69985244    -0.77600
C234        C  0.08990032  0.17476039  0.59232759     0.84400
O235        O  0.04657645  0.08825804  0.77611296    -0.77700
C236        C  0.03164741  0.20243738  0.73602950     0.84500
C237        C  0.17588993  0.20192519  0.73588011     0.84800
O238        O  0.14991802  0.20451763  0.75644894    -0.80100
O239        O  0.43531859  0.42767338  0.69985662    -0.77600
C240        C  0.43428670  0.02852442  0.67730701     0.83400
O241        O  0.35591527  0.42544541  0.80901095    -0.78700
O242        O  0.31617768  0.48022379  0.70217671    -0.80200
O243        O  0.33012549  0.38416884  0.61027541    -0.80000
O244        O  0.40361746  0.37820291  0.65801103    -0.78600
Zn245      Zn  0.40679918  0.45105167  0.71826654     1.55700
O246        O  0.32961693  0.44075427  0.61039966    -0.80000
Cd247      Cd  0.35149947  0.38048670  0.66760379     1.59700
Cd248      Cd  0.32526773  0.41014287  0.75356802     1.59600
O249        O  0.31674439  0.33108467  0.70207624    -0.80000
O250        O  0.35665530  0.42593186  0.70081290    -1.90500
Cd251      Cd  0.35110277  0.46603042  0.66772319     1.59900
O252        O  0.29550454  0.35011353  0.75644446    -0.80000
O253        O  0.40336120  0.02085467  0.65807089    -0.78600
C254        C  0.39277149  0.44384115  0.80919661     0.83900
C255        C  0.43450373  0.40144380  0.67749091     0.83600
O256        O  0.43498856  0.00300673  0.69958074    -0.77600
C257        C  0.32525634  0.41012756  0.59232777     0.84400
O258        O  0.41176335  0.45345227  0.77611584    -0.77700
C259        C  0.29810389  0.32414413  0.73587892     0.84500
C260        C  0.29759296  0.46838920  0.73602809     0.84800
O261        O  0.29525992  0.43995778  0.75670707    -0.80100
C262        C  0.20895487  0.10237349  0.97925528     0.04000
C263        C  0.21212981  0.10421126  0.02274018    -0.12100
C264        C  0.17818243  0.08762729  0.04725240     0.01500
C265        C  0.14141195  0.06934896  0.02886083    -0.10700
C266        C  0.13747842  0.06706340  0.98656820     0.04000
C267        C  0.17108733  0.08350991  0.96164170    -0.10100
H268        H  0.24050728  0.11829731  0.03737387     0.09600
H269        H  0.11534943  0.05653280  0.04782614     0.07100
H270        H  0.16758499  0.08150855  0.92858876     0.07000
C271        C  0.39765720  0.29107640  0.97925429     0.04000
C272        C  0.41652268  0.32894469  0.96164355    -0.12100
C273        C  0.43296250  0.36255127  0.98657261     0.01500
C274        C  0.43066789  0.35861438  0.02886505    -0.10700
C275        C  0.41238856  0.32184233  0.04725315     0.04000
C276        C  0.39581215  0.28789778  0.02273844    -0.10100
H277        H  0.41852999  0.33244937  0.92859089     0.09600
H278        H  0.44347880  0.38467469  0.04783245     0.07100
H279        H  0.38172576  0.25951966  0.03736981     0.07000
C280        C  0.39797022  0.10206226  0.97874547     0.04000
C281        C  0.41681986  0.08321639  0.96108275    -0.12100
C282        C  0.43356744  0.06646120  0.98600171     0.01500
C283        C  0.43158588  0.06843072  0.02831250    -0.10700
C284        C  0.41328672  0.08672813  0.04668331     0.04000
C285        C  0.39641259  0.10361094  0.02219962    -0.10100
H286        H  0.41854077  0.08150283  0.92802415     0.09600
H287        H  0.44453389  0.05547627  0.04731273     0.07100
H288        H  0.38230049  0.11772163  0.03686415     0.07000
O289        O  0.36327900  0.13675673  0.96804642    -0.77600
C290        C  0.38018427  0.25552652  0.95215468     0.83400
O291        O  0.24015209  0.11760915  0.91309850    -0.78700
O292        O  0.32524115  0.23126213  0.82682239    -0.80200
O293        O  0.41128569  0.17513873  0.82692159    -0.80000
O294        O  0.38230679  0.11772764  0.91276069    -0.78600
Zn295      Zn  0.33508102  0.16495344  0.94583187     1.55700
O296        O  0.41168409  0.23149843  0.82698516    -0.80000
Cd297      Cd  0.36265847  0.13737639  0.86327819     1.59700
Cd298      Cd  0.27939295  0.13704300  0.86328008     1.59600
O299        O  0.32489503  0.08875008  0.82692153    -0.80000
O300        O  0.33500264  0.16503310  0.88470428    -1.90500
Cd301      Cd  0.36299433  0.22064255  0.86327884     1.59900
O302        O  0.26853576  0.08835345  0.82698554    -0.80000
O303        O  0.38242749  0.25988266  0.91309653    -0.78600
C304        C  0.24450688  0.11984992  0.95215688     0.83900
C305        C  0.38021829  0.11981661  0.95181327     0.83600
O306        O  0.36326984  0.22143650  0.96825892    -0.77600
C307        C  0.42644644  0.21078968  0.81564977     0.84400
O308        O  0.27859695  0.13676357  0.96826165    -0.77700
C309        C  0.28924388  0.07359039  0.81564983     0.84500
C310        C  0.28955595  0.21048205  0.81553239     0.84800
O311        O  0.26877563  0.17479762  0.82682415    -0.80100
C312        C  0.27146662  0.03793323  0.78859622     0.04000
C313        C  0.23238875  0.02084944  0.77485399    -0.12100
C314        C  0.21599052  0.48740919  0.74957245     0.01500
C315        C  0.23780872  0.47072206  0.73795468    -0.10700
C316        C  0.27617253  0.48697485  0.75059840     0.04000
C317        C  0.29330531  0.02049381  0.77586448    -0.10100
H318        H  0.21468523  0.03331767  0.78370609     0.09600
H319        H  0.22487618  0.44497452  0.71852254     0.07100
H320        H  0.32339362  0.03278250  0.78540048     0.07000
C321        C  0.46210396  0.22856598  0.78859622     0.01400
C322        C  0.47918742  0.26764297  0.77485243    -0.12100
C323        C  0.01262811  0.28404074  0.74957096     0.01500
C324        C  0.02931581  0.26222261  0.73795417    -0.10700
C325        C  0.01306300  0.22385925  0.75059955     0.04000
C326        C  0.47954371  0.20672719  0.77586599    -0.10100
H327        H  0.46671904  0.28534600  0.78370340     0.09600
H328        H  0.05506288  0.27515443  0.71852206     0.07100
H329        H  0.46725522  0.17664022  0.78540277     0.07000
C330        C  0.27176446  0.22827226  0.78859635     0.04000
C331        C  0.23240418  0.20618963  0.77547752    -0.12100
C332        C  0.21604051  0.22332179  0.75046881     0.01500
C333        C  0.23816162  0.26187015  0.73845622    -0.10700
C334        C  0.27671024  0.28399368  0.75046812     0.04000
C335        C  0.29384494  0.26763220  0.77547656    -0.10100
H336        H  0.21449827  0.17593884  0.78458571     0.09600
H337        H  0.22529024  0.27473948  0.71919531     0.07100
H338        H  0.32409667  0.28554010  0.78458446     0.07000
O339        O  0.13936626  0.86063437  0.46821994    -0.77600
C340        C  0.12243780  0.74182491  0.45227760     0.83400
O341        O  0.26249007  0.87980298  0.41321500    -0.78700
O342        O  0.17739304  0.76614243  0.32692369    -0.80200
O343        O  0.09133035  0.82225245  0.32700484    -0.80000
O344        O  0.12034686  0.87965390  0.41290616    -0.78600
Zn345      Zn  0.16757458  0.83242762  0.44600014     1.55700
O346        O  0.09094603  0.76590142  0.32707502    -0.80000
Cd347      Cd  0.13997620  0.86002456  0.36338854     1.59700
Cd348      Cd  0.22323698  0.86036071  0.36339774     1.59600
O349        O  0.17774858  0.90866948  0.32700414    -0.80000
O350        O  0.16763286  0.83236791  0.38484430    -1.90500
Cd351      Cd  0.13963900  0.77676413  0.36339677     1.59900
O352        O  0.23409970  0.90905302  0.32707469    -0.80000
O353        O  0.12019756  0.73751187  0.41321314    -0.78600
C354        C  0.25817809  0.87756510  0.45227981     0.83900
C355        C  0.12242841  0.87757247  0.45196462     0.83600
O356        O  0.13936479  0.77590299  0.46841675    -0.77600
C357        C  0.07617877  0.78660320  0.31572076     0.84400
O358        O  0.22409985  0.86063865  0.46841953    -0.77700
C359        C  0.21339811  0.92382046  0.31572001     0.84500
C360        C  0.21307629  0.78692283  0.31562336     0.84800
O361        O  0.23385704  0.82260530  0.32692527    -0.80100
C362        C  0.23086181  0.76913839  0.28865628     0.04000
C363        C  0.20877372  0.72978079  0.27551385    -0.12100
C364        C  0.22589670  0.71343284  0.25046500     0.01500
C365        C  0.26443756  0.73556712  0.23843838    -0.10700
C366        C  0.28657020  0.77410719  0.25046685     0.04000
C367        C  0.27022019  0.79122781  0.27551582    -0.10100
H368        H  0.17852670  0.71186804  0.28463101     0.09600
H369        H  0.27729680  0.72270978  0.21914655     0.07100
H370        H  0.28813170  0.82147396  0.28463404     0.07000
C371        C  0.23118132  0.95946227  0.28861790     0.04000
C372        C  0.27025231  0.97651520  0.27484233    -0.12100
C373        C  0.28664626  0.50992350  0.24949935     0.01500
C374        C  0.26482868  0.52660615  0.23785654    -0.10700
C375        C  0.22648049  0.51039653  0.25053516     0.04000
C376        C  0.20935203  0.97690915  0.27585786    -0.10100
H377        H  0.28795095  0.96404623  0.28371328     0.09600
H378        H  0.27775335  0.55232455  0.21838013     0.07100
H379        H  0.17927369  0.96464869  0.28541395     0.07000
C380        C  0.04053661  0.76882056  0.28861907     0.04000
C381        C  0.02348398  0.72975049  0.27484206    -0.12100
C382        C  0.49007541  0.71335706  0.24949936     0.01500
C383        C  0.47339257  0.73517490  0.23785780    -0.10700
C384        C  0.48960207  0.77352246  0.25053766     0.04000
C385        C  0.02308945  0.79064992  0.27586056    -0.10100
H386        H  0.03595346  0.71205182  0.28371202     0.09600
H387        H  0.44767354  0.72225063  0.21838067     0.07100
H388        H  0.03534977  0.82072723  0.28541738     0.07000
C389        C  0.29377809  0.89506226  0.47932938     0.04000
C390        C  0.33161291  0.91388268  0.46164036    -0.12100
C391        C  0.36527571  0.93034640  0.48648862     0.01500
C392        C  0.36142551  0.92812449  0.52880156    -0.10700
C393        C  0.32468703  0.90988990  0.54727971     0.04000
C394        C  0.29069098  0.89328783  0.52282458    -0.10100
H395        H  0.33505016  0.91583771  0.42857941     0.09600
H396        H  0.38752420  0.94095363  0.54771164     0.07100
H397        H  0.26233969  0.87923269  0.53751093     0.07000
C398        C  0.10466285  0.89534065  0.47886268     0.04000
C399        C  0.08582757  0.91417256  0.46113196    -0.12100
C400        C  0.06905945  0.93094813  0.48597618     0.01500
C401        C  0.07100517  0.92901412  0.52830493    -0.10700
C402        C  0.08929137  0.91072963  0.54675800     0.04000
C403        C  0.10618618  0.89382626  0.52232733    -0.10100
H404        H  0.08413201  0.91586102  0.42806644     0.09600
H405        H  0.05804154  0.94198397  0.54725062     0.07100
H406        H  0.12028831  0.87972537  0.53703966     0.07000
O407        O  0.45569228  0.54431543  0.27632103    -0.77600
C408        C  0.40389495  0.96880686  0.17726968     0.83400
O409        O  0.02374039  0.61928363  0.15770732    -0.78700
O410        O  0.38711679  0.55574813  0.10971669    -0.80200
O411        O  0.35294639  0.55716170  0.25535149    -0.80000
O412        O  0.42787672  0.57213624  0.30897476    -0.78600
Zn413      Zn  0.45352331  0.54648076  0.21839241     1.55700
O414        O  0.33350851  0.51637707  0.20122708    -0.80000
Cd415      Cd  0.41291303  0.58709110  0.25295155     1.59700
Cd416      Cd  0.46924187  0.61696190  0.16714671     1.59600
O417        O  0.44283354  0.64705759  0.25534723    -0.80000
O418        O  0.42867712  0.57132687  0.20037153    -1.90500
Cd419      Cd  0.38304244  0.53076379  0.16714399     1.59900
O420        O  0.48362838  0.66649465  0.20123111    -0.80000
O421        O  0.38071962  0.97626553  0.15770623    -0.78600
C422        C  0.03119821  0.59610662  0.17726848     0.83900
C423        C  0.44621309  0.55379881  0.30936211     0.83600
O424        O  0.42994350  0.99436908  0.19990631    -0.77600
C425        C  0.32673345  0.52852102  0.23479059     0.84400
O426        O  0.00563514  0.57005758  0.19990421    -0.77700
C427        C  0.47147843  0.67327017  0.23479026     0.84500
C428        C  0.41346331  0.58654644  0.09169116     0.84800
O429        O  0.44425945  0.61289223  0.10972011    -0.80100
O430        O  0.00562446  0.93234128  0.19919019    -0.77600
C431        C  0.40400780  0.93180723  0.17711956     0.83400
O432        O  0.42810840  0.85328904  0.30869962    -0.78700
O433        O  0.33362217  0.81409910  0.20200796    -0.80200
O434        O  0.44324838  0.82676515  0.11033225    -0.80000
O435        O  0.02347788  0.90065726  0.15779039    -0.78600
Zn436      Zn  0.45366302  0.90414085  0.21790614     1.55700
O437        O  0.38662748  0.82722753  0.11020319    -0.80000
Cd438      Cd  0.46863079  0.84838942  0.16755640     1.59700
Cd439      Cd  0.41272831  0.82258070  0.25333282     1.59600
O440        O  0.48285962  0.81352186  0.20208489    -0.80000
O441        O  0.42850905  0.85396086  0.20057438    -1.90500
Cd442      Cd  0.38299574  0.84875645  0.16743404     1.59900
O443        O  0.44253052  0.79255763  0.25655332    -0.80000
O444        O  0.38072410  0.90088814  0.15770794    -0.78600
C445        C  0.44650057  0.89014269  0.30885500     0.83900
C446        C  0.03115080  0.93162017  0.17695252     0.83600
O447        O  0.43026511  0.93263775  0.19945578    -0.77600
C448        C  0.41259172  0.82235351  0.09227994     0.84400
O449        O  0.45608895  0.90912669  0.27576279    -0.77700
C450        C  0.47100443  0.79492780  0.23592946     0.84500
C451        C  0.32671247  0.79548918  0.23582984     0.84800
O452        O  0.35269766  0.79286561  0.25634200    -0.80100
O453        O  0.06736938  0.56973915  0.19945803    -0.77600
C454        C  0.06838608  0.96885441  0.17695237     0.83400
O455        O  0.14672609  0.57190199  0.30869849    -0.78700
O456        O  0.18648143  0.51714016  0.20208282    -0.80200
O457        O  0.17278941  0.61338121  0.11020395    -0.80000
O458        O  0.09911635  0.61927422  0.15770242    -0.78600
Zn459      Zn  0.09586838  0.54634190  0.21790734     1.55700
O460        O  0.17324763  0.55675868  0.11032970    -0.80000
Cd461      Cd  0.15125045  0.61700639  0.16743189     1.59700
Cd462      Cd  0.17743131  0.58727738  0.25332879     1.59600
O463        O  0.18590223  0.66637940  0.20200865    -0.80000
O464        O  0.14604765  0.57149433  0.20057215    -1.90500
Cd465      Cd  0.15161744  0.53137252  0.16755247     1.59900
O466        O  0.20714819  0.64730793  0.25633528    -0.80000
O467        O  0.09934752  0.97652755  0.15778610    -0.78600
C468        C  0.10987212  0.55350976  0.30885582     0.83900
C469        C  0.06819841  0.59599367  0.17711825     0.83600
O470        O  0.06766697  0.99438009  0.19919272    -0.77600
C471        C  0.17766494  0.58741851  0.09227966     0.84400
O472        O  0.09088684  0.54391940  0.27576440    -0.77700
C473        C  0.20451720  0.67329088  0.23582733     0.84500
C474        C  0.20507677  0.52899560  0.23592661     0.84800
O475        O  0.20745086  0.55747184  0.25654873    -0.80100
O476        O  0.47606357  0.52395215  0.33839701    -0.77600
C477        C  0.08573753  0.54160866  0.34551443     0.83400
O478        O  0.45267541  0.90194936  0.38216531    -0.78700
O479        O  0.06960296  0.98742048  0.46143784    -0.80200
O480        O  0.01298652  0.57869251  0.46189873    -0.80000
O481        O  0.45227039  0.54774299  0.38285380    -0.78600
Zn482      Zn  0.00064402  0.99937019  0.36160610     1.55700
O483        O  0.06979800  0.57875457  0.46168028    -0.80000
Cd484      Cd  0.47241559  0.52759541  0.43199762     1.59700
Cd485      Cd  0.47247448  0.94150702  0.43179294     1.59600
O486        O  0.42131546  0.98702393  0.46189481    -0.80000
O487        O  0.00101943  0.99899179  0.41715593    -1.90500
Cd488      Cd  0.05850418  0.52753447  0.43179415     1.59900
O489        O  0.42125145  0.93021205  0.46167509    -0.80000
O490        O  0.09806528  0.54733553  0.38216727    -0.78600
C491        C  0.45840342  0.91427760  0.34551269     0.83900
C492        C  0.45826058  0.54175403  0.34608339     0.83600
O493        O  0.04990529  0.52411801  0.33797371    -0.77600
C494        C  0.04970024  0.59516153  0.46891042     0.84400
O495        O  0.47589554  0.95010969  0.33797181    -0.77700
C496        C  0.40484470  0.95031006  0.46890473     0.84500
C497        C  0.04932272  0.95068480  0.46845803     0.84800
O498        O  0.01258686  0.93040528  0.46143696    -0.80100
C499        C  0.10494442  0.70622674  0.47932818     0.04000
C500        C  0.08612186  0.66839135  0.46164192    -0.12100
C501        C  0.06966520  0.63473060  0.48649275     0.01500
C502        C  0.07189679  0.63858370  0.52880553    -0.10700
C503        C  0.09013254  0.67532364  0.54728011     0.04000
C504        C  0.10672663  0.70931694  0.52282245    -0.10100
H505        H  0.08416047  0.66495216  0.42858134     0.09600
H506        H  0.05907309  0.61248701  0.54771785     0.07100
H507        H  0.12078255  0.73766945  0.53750675     0.07000
O508        O  0.02663017  0.97338764  0.83876367    -0.77600
C509        C  0.41691191  0.95573123  0.84586173     0.83400
O510        O  0.05002552  0.59543082  0.88251037    -0.78700
O511        O  0.43305363  0.50995851  0.96165371    -0.80200
O512        O  0.48968012  0.91863348  0.96215782    -0.80000
O513        O  0.05042627  0.94959694  0.88322215    -0.78600
Zn514      Zn  0.00203806  0.99798316  0.86195319     1.55700
O515        O  0.43287375  0.91858741  0.96193533    -0.80000
Cd516      Cd  0.03026953  0.96975665  0.93233881     1.59700
Cd517      Cd  0.03020092  0.55584909  0.93211891     1.59600
O518        O  0.08139539  0.51034682  0.96215339    -0.80000
O519        O  0.00166233  0.99836270  0.91749793    -1.90500
Cd520      Cd  0.44417583  0.96982611  0.93212104     1.59900
O521        O  0.08144235  0.56715300  0.96192957    -0.80000
O522        O  0.40459019  0.95000019  0.88251398    -0.78600
C523        C  0.04429381  0.58310824  0.84585868     0.83900
C524        C  0.04443570  0.95558408  0.84645049     0.83600
O525        O  0.45274797  0.97322565  0.83832535    -0.77600
C526        C  0.45295763  0.90215630  0.96910976     0.84400
O527        O  0.02679777  0.54727226  0.83832288    -0.77700
C528        C  0.09787366  0.54706930  0.96910367     0.84500
C529        C  0.45332346  0.54670530  0.96860574     0.84800
O530        O  0.49007028  0.56697454  0.96165159    -0.80100
O531        O  0.04699759  0.95302978  0.77669317    -0.77600
C532        C  0.09871614  0.52854218  0.67764792     0.83400
O533        O  0.47894534  0.87818133  0.65801543    -0.78700
O534        O  0.11544438  0.94171489  0.60982948    -0.80200
O535        O  0.14970498  0.94019787  0.75551745    -0.80000
O536        O  0.07481858  0.92520087  0.80931118    -0.78600
Zn537      Zn  0.04914949  0.95088121  0.71877507     1.55700
O538        O  0.16909914  0.98093890  0.70134492    -0.80000
Cd539      Cd  0.08974526  0.91028508  0.75321577     1.59700
Cd540      Cd  0.03342831  0.88048377  0.66734208     1.59600
O541        O  0.05984259  0.85032557  0.75551198    -0.80000
O542        O  0.07397428  0.92605626  0.70063461    -1.90500
Cd543      Cd  0.11954726  0.96660026  0.66733906     1.59900
O544        O  0.01909092  0.83093284  0.70134851    -0.80000
O545        O  0.12185121  0.52108301  0.65801269    -0.78600
C546        C  0.47148717  0.90131828  0.67764808     0.83900
C547        C  0.05648231  0.94353965  0.80972479     0.83600
O548        O  0.07270790  0.50299032  0.70032584    -0.77600
C549        C  0.17589952  0.96880428  0.73490317     0.84400
O550        O  0.49703993  0.92732686  0.70032479    -0.77700
C551        C  0.03123213  0.82413162  0.73490170     0.84500
C552        C  0.08909124  0.91093441  0.59178533     0.84800
O553        O  0.05831190  0.88458300  0.60983280    -0.80100
O554        O  0.49702468  0.56503845  0.69957795    -0.77600
C555        C  0.09859110  0.56552522  0.67749087     0.83400
O556        O  0.07458144  0.64410463  0.80901002    -0.78700
O557        O  0.16895150  0.68328919  0.70207485    -0.80200
O558        O  0.05927674  0.67040553  0.61040169    -0.80000
O559        O  0.47917718  0.59667025  0.65807456    -0.78600
Zn560      Zn  0.04897969  0.59322621  0.71826411     1.55700
O561        O  0.11586050  0.66989272  0.61027417    -0.80000
Cd562      Cd  0.03400387  0.64892579  0.66772626     1.59700
Cd563      Cd  0.08988848  0.67475547  0.75357017     1.59600
O564        O  0.01981341  0.68385423  0.70217731    -0.80000
O565        O  0.07410184  0.64337098  0.70081414    -1.90500
Cd566      Cd  0.11954879  0.64852859  0.66760540     1.59900
O567        O  0.06007629  0.70476625  0.75670999    -0.80000
O568        O  0.12183636  0.59641311  0.65801620    -0.78600
C569        C  0.05618579  0.60724874  0.80919418     0.83900
C570        C  0.47150679  0.56574303  0.67730694     0.83600
O571        O  0.07235808  0.56470868  0.69985237    -0.77600
C572        C  0.08990036  0.67476044  0.59232759     0.84400
O573        O  0.04657637  0.58825798  0.77611297    -0.77700
C574        C  0.03164738  0.70243735  0.73602941     0.84500
C575        C  0.17588994  0.70192526  0.73588011     0.84800
O576        O  0.14991803  0.70451760  0.75644905    -0.80100
O577        O  0.43531854  0.92767338  0.69985661    -0.77600
C578        C  0.43428663  0.52852439  0.67730700     0.83400
O579        O  0.35591522  0.92544530  0.80901100    -0.78700
O580        O  0.31617787  0.98022393  0.70217675    -0.80200
O581        O  0.33012537  0.88416876  0.61027543    -0.80000
O582        O  0.40361744  0.87820293  0.65801102    -0.78600
Zn583      Zn  0.40679922  0.95105164  0.71826655     1.55700
O584        O  0.32961702  0.94075428  0.61039966    -0.80000
Cd585      Cd  0.35149961  0.88048687  0.66760379     1.59700
Cd586      Cd  0.32526779  0.91014284  0.75356801     1.59600
O587        O  0.31674435  0.83108476  0.70207622    -0.80000
O588        O  0.35665538  0.92593188  0.70081292    -1.90500
Cd589      Cd  0.35110286  0.96603040  0.66772320     1.59900
O590        O  0.29550446  0.85011356  0.75644445    -0.80000
O591        O  0.40336109  0.52085465  0.65807096    -0.78600
C592        C  0.39277143  0.94384112  0.80919663     0.83900
C593        C  0.43450372  0.90144384  0.67749089     0.83600
O594        O  0.43498854  0.50300670  0.69958070    -0.77600
C595        C  0.32525627  0.91012752  0.59232778     0.84400
O596        O  0.41176325  0.95345225  0.77611583    -0.77700
C597        C  0.29810386  0.82414420  0.73587893     0.84500
C598        C  0.29759305  0.96838924  0.73602807     0.84800
O599        O  0.29525998  0.93995779  0.75670701    -0.80100
C600        C  0.20895484  0.60237359  0.97925526     0.04000
C601        C  0.21212977  0.60421123  0.02274017    -0.12100
C602        C  0.17818238  0.58762726  0.04725239     0.01500
C603        C  0.14141183  0.56934895  0.02886087    -0.10700
C604        C  0.13747838  0.56706348  0.98656819     0.04000
C605        C  0.17108729  0.58350998  0.96164168    -0.10100
H606        H  0.24050715  0.61829711  0.03737384     0.09600
H607        H  0.11534980  0.55653298  0.04782581     0.07100
H608        H  0.16758497  0.58150854  0.92858882     0.07000
C609        C  0.39765717  0.79107640  0.97925429     0.04000
C610        C  0.41652270  0.82894469  0.96164355    -0.12100
C611        C  0.43296254  0.86255128  0.98657261     0.01500
C612        C  0.43066796  0.85861440  0.02886503    -0.10700
C613        C  0.41238866  0.82184236  0.04725316     0.04000
C614        C  0.39581221  0.78789779  0.02273846    -0.10100
H615        H  0.41853001  0.83244936  0.92859090     0.09600
H616        H  0.44347890  0.88467487  0.04783253     0.07100
H617        H  0.38172593  0.75951979  0.03736978     0.07000
C618        C  0.39797020  0.60206222  0.97874545     0.04000
C619        C  0.41681991  0.58321638  0.96108276    -0.12100
C620        C  0.43356750  0.56646119  0.98600174     0.01500
C621        C  0.43158595  0.56843067  0.02831256    -0.10700
C622        C  0.41328676  0.58672814  0.04668330     0.04000
C623        C  0.39641252  0.60361085  0.02219963    -0.10100
H624        H  0.41854082  0.58150281  0.92802416     0.09600
H625        H  0.44453374  0.55547641  0.04731249     0.07100
H626        H  0.38230042  0.61772141  0.03686408     0.07000
O627        O  0.36327885  0.63675659  0.96804643    -0.77600
C628        C  0.38018430  0.75552648  0.95215469     0.83400
O629        O  0.24015218  0.61760927  0.91309849    -0.78700
O630        O  0.32524109  0.73126206  0.82682235    -0.80200
O631        O  0.41128556  0.67513872  0.82692155    -0.80000
O632        O  0.38230692  0.61772783  0.91276069    -0.78600
Zn633      Zn  0.33508105  0.66495339  0.94583187     1.55700
O634        O  0.41168420  0.73149854  0.82698521    -0.80000
Cd635      Cd  0.36265831  0.63737636  0.86327819     1.59700
Cd636      Cd  0.27939298  0.63704297  0.86328006     1.59600
O637        O  0.32489489  0.58875006  0.82692156    -0.80000
O638        O  0.33500255  0.66503307  0.88470429    -1.90500
Cd639      Cd  0.36299422  0.72064251  0.86327883     1.59900
O640        O  0.26853561  0.58835339  0.82698555    -0.80000
O641        O  0.38242753  0.75988261  0.91309654    -0.78600
C642        C  0.24450689  0.61984998  0.95215688     0.83900
C643        C  0.38021826  0.61981661  0.95181327     0.83600
O644        O  0.36326991  0.72143646  0.96825892    -0.77600
C645        C  0.42644646  0.71078972  0.81564979     0.84400
O646        O  0.27859694  0.63676357  0.96826170    -0.77700
C647        C  0.28924374  0.57359036  0.81564985     0.84500
C648        C  0.28955591  0.71048207  0.81553239     0.84800
O649        O  0.26877552  0.67479760  0.82682417    -0.80100
C650        C  0.27146657  0.53793325  0.78859620     0.04000
C651        C  0.23238863  0.52084959  0.77485399    -0.12100
C652        C  0.21599056  0.98740913  0.74957245     0.01500
C653        C  0.23780878  0.97072201  0.73795465    -0.10700
C654        C  0.27617259  0.98697485  0.75059836     0.04000
C655        C  0.29330530  0.52049388  0.77586446    -0.10100
H656        H  0.21468578  0.53331739  0.78370576     0.09600
H657        H  0.22487628  0.94497456  0.71852257     0.07100
H658        H  0.32339345  0.53278252  0.78540036     0.07000
C659        C  0.46210399  0.72856598  0.78859628     0.01400
C660        C  0.47918741  0.76764297  0.77485247    -0.12100
C661        C  0.01262809  0.78404076  0.74957097     0.01500
C662        C  0.02931586  0.76222266  0.73795414    -0.10700
C663        C  0.01306297  0.72385924  0.75059948     0.04000
C664        C  0.47954382  0.70672734  0.77586601    -0.10100
H665        H  0.46671896  0.78534605  0.78370351     0.09600
H666        H  0.05506266  0.77515433  0.71852225     0.07100
H667        H  0.46725506  0.67663960  0.78540310     0.07000
C668        C  0.27176446  0.72827234  0.78859637     0.04000
C669        C  0.23240431  0.70618988  0.77547747    -0.12100
C670        C  0.21604052  0.72332187  0.75046878     0.01500
C671        C  0.23816161  0.76187030  0.73845618    -0.10700
C672        C  0.27671021  0.78399377  0.75046815     0.04000
C673        C  0.29384513  0.76763242  0.77547661    -0.10100
H674        H  0.21449794  0.67593831  0.78458590     0.09600
H675        H  0.22529039  0.77473940  0.71919554     0.07100
H676        H  0.32409578  0.78553966  0.78458414     0.07000
O677        O  0.63936635  0.36063440  0.46821995    -0.77600
C678        C  0.62243785  0.24182487  0.45227760     0.83400
O679        O  0.76249006  0.37980306  0.41321499    -0.78700
O680        O  0.67739309  0.26614233  0.32692377    -0.80200
O681        O  0.59133042  0.32225246  0.32700481    -0.80000
O682        O  0.62034696  0.37965396  0.41290617    -0.78600
Zn683      Zn  0.66757446  0.33242746  0.44600014     1.55700
O684        O  0.59094596  0.26590137  0.32707506    -0.80000
Cd685      Cd  0.63997618  0.36002460  0.36338854     1.59700
Cd686      Cd  0.72323694  0.36036075  0.36339774     1.59600
O687        O  0.67774860  0.40866948  0.32700414    -0.80000
O688        O  0.66763281  0.33236794  0.38484429    -1.90500
Cd689      Cd  0.63963899  0.27676416  0.36339676     1.59900
O690        O  0.73409973  0.40905304  0.32707467    -0.80000
O691        O  0.62019774  0.23751187  0.41321313    -0.78600
C692        C  0.75817811  0.37756515  0.45227981     0.83900
C693        C  0.62242850  0.37757251  0.45196462     0.83600
O694        O  0.63936471  0.27590293  0.46841677    -0.77600
C695        C  0.57617876  0.28660319  0.31572078     0.84400
O696        O  0.72409986  0.36063860  0.46841953    -0.77700
C697        C  0.71339812  0.42382045  0.31571997     0.84500
C698        C  0.71307631  0.28692279  0.31562339     0.84800
O699        O  0.73385700  0.32260531  0.32692525    -0.80100
C700        C  0.73086181  0.26913841  0.28865622     0.04000
C701        C  0.70877364  0.22978077  0.27551382    -0.12100
C702        C  0.72589666  0.21343281  0.25046502     0.01500
C703        C  0.76443745  0.23556714  0.23843839    -0.10700
C704        C  0.78657015  0.27410720  0.25046677     0.04000
C705        C  0.77022004  0.29122766  0.27551566    -0.10100
H706        H  0.67852677  0.21186816  0.28463094     0.09600
H707        H  0.77729701  0.22270955  0.21914612     0.07100
H708        H  0.78813218  0.32147490  0.28463420     0.07000
C709        C  0.73118132  0.45946228  0.28861789     0.04000
C710        C  0.77025235  0.47651524  0.27484232    -0.12100
C711        C  0.78664622  0.00992348  0.24949931     0.01500
C712        C  0.76482855  0.02660599  0.23785654    -0.10700
C713        C  0.72648043  0.01039649  0.25053515     0.04000
C714        C  0.70935205  0.47690918  0.27585786    -0.10100
H715        H  0.78795088  0.46404632  0.28371322     0.09600
H716        H  0.77775349  0.05232497  0.21837965     0.07100
H717        H  0.67927364  0.46464868  0.28541396     0.07000
C718        C  0.54053661  0.26882056  0.28861908     0.04000
C719        C  0.52348399  0.22975047  0.27484209    -0.12100
C720        C  0.99007544  0.21335703  0.24949933     0.01500
C721        C  0.97339240  0.23517475  0.23785775    -0.10700
C722        C  0.98960206  0.27352240  0.25053766     0.04000
C723        C  0.52308946  0.29064989  0.27586051    -0.10100
H724        H  0.53595346  0.21205183  0.28371209     0.09600
H725        H  0.94767408  0.22225080  0.21838117     0.07100
H726        H  0.53534984  0.32072729  0.28541728     0.07000
C727        C  0.79377813  0.39506236  0.47932939     0.04000
C728        C  0.83161294  0.41388276  0.46164037    -0.12100
C729        C  0.86527575  0.43034645  0.48648862     0.01500
C730        C  0.86142566  0.42812452  0.52880160    -0.10700
C731        C  0.82468711  0.40988992  0.54727971     0.04000
C732        C  0.79069105  0.39328792  0.52282460    -0.10100
H733        H  0.83505017  0.41583780  0.42857943     0.09600
H734        H  0.88752398  0.44095347  0.54771137     0.07100
H735        H  0.76233986  0.37923286  0.53751091     0.07000
C736        C  0.60466291  0.39534066  0.47886266     0.04000
C737        C  0.58582761  0.41417257  0.46113196    -0.12100
C738        C  0.56905959  0.43094824  0.48597619     0.01500
C739        C  0.57100521  0.42901410  0.52830496    -0.10700
C740        C  0.58929144  0.41072958  0.54675800     0.04000
C741        C  0.60618630  0.39382631  0.52232730    -0.10100
H742        H  0.58413200  0.41586100  0.42806646     0.09600
H743        H  0.55804165  0.44198384  0.54725059     0.07100
H744        H  0.62028855  0.37972549  0.53703960     0.07000
O745        O  0.95569228  0.04431549  0.27632103    -0.77600
C746        C  0.90389504  0.46880688  0.17726966     0.83400
O747        O  0.52374032  0.11928351  0.15770725    -0.78700
O748        O  0.88711673  0.05574812  0.10971671    -0.80200
O749        O  0.85294633  0.05716175  0.25535143    -0.80000
O750        O  0.92787671  0.07213628  0.30897476    -0.78600
Zn751      Zn  0.95352329  0.04648079  0.21839240     1.55700
O752        O  0.83350857  0.01637693  0.20122716    -0.80000
Cd753      Cd  0.91291299  0.08709113  0.25295156     1.59700
Cd754      Cd  0.96924199  0.11696192  0.16714671     1.59600
O755        O  0.94283366  0.14705758  0.25534723    -0.80000
O756        O  0.92867715  0.07132695  0.20037153    -1.90500
Cd757      Cd  0.88304258  0.03076383  0.16714400     1.59900
O758        O  0.98362853  0.16649465  0.20123111    -0.80000
O759        O  0.88071973  0.47626556  0.15770618    -0.78600
C760        C  0.53119821  0.09610659  0.17726849     0.83900
C761        C  0.94621312  0.05379888  0.30936210     0.83600
O762        O  0.92994355  0.49436909  0.19990635    -0.77600
C763        C  0.82673343  0.02852099  0.23479057     0.84400
O764        O  0.50563520  0.07005757  0.19990428    -0.77700
C765        C  0.97147853  0.17327016  0.23479024     0.84500
C766        C  0.91346327  0.08654643  0.09169117     0.84800
O767        O  0.94425940  0.11289223  0.10972012    -0.80100
O768        O  0.50562443  0.43234131  0.19919020    -0.77600
C769        C  0.90400783  0.43180724  0.17711955     0.83400
O770        O  0.92810833  0.35328904  0.30869963    -0.78700
O771        O  0.83362218  0.31409917  0.20200794    -0.80200
O772        O  0.94324833  0.32676517  0.11033224    -0.80000
O773        O  0.52347784  0.40065724  0.15779039    -0.78600
Zn774      Zn  0.95366301  0.40414089  0.21790614     1.55700
O775        O  0.88662744  0.32722756  0.11020319    -0.80000
Cd776      Cd  0.96863085  0.34838925  0.16755639     1.59700
Cd777      Cd  0.91272829  0.32258073  0.25333282     1.59600
O778        O  0.98285968  0.31352182  0.20208489    -0.80000
O779        O  0.92850921  0.35396088  0.20057438    -1.90500
Cd780      Cd  0.88299590  0.34875650  0.16743405     1.59900
O781        O  0.94253062  0.29255769  0.25655336    -0.80000
O782        O  0.88072412  0.40088814  0.15770795    -0.78600
C783        C  0.94650050  0.39014270  0.30885501     0.83900
C784        C  0.53115077  0.43162016  0.17695254     0.83600
O785        O  0.93026511  0.43263774  0.19945579    -0.77600
C786        C  0.91259166  0.32235352  0.09227994     0.84400
O787        O  0.95608888  0.40912669  0.27576279    -0.77700
C788        C  0.97100448  0.29492778  0.23592946     0.84500
C789        C  0.82671243  0.29548921  0.23582981     0.84800
O790        O  0.85269761  0.29286566  0.25634199    -0.80100
O791        O  0.56736940  0.06973921  0.19945803    -0.77600
C792        C  0.56838606  0.46885441  0.17695238     0.83400
O793        O  0.64672613  0.07190210  0.30869854    -0.78700
O794        O  0.68648140  0.01714018  0.20208279    -0.80200
O795        O  0.67278934  0.11338121  0.11020395    -0.80000
O796        O  0.59911636  0.11927429  0.15770241    -0.78600
Zn797      Zn  0.59586835  0.04634194  0.21790734     1.55700
O798        O  0.67324779  0.05675878  0.11032971    -0.80000
Cd799      Cd  0.65125043  0.11700644  0.16743189     1.59700
Cd800      Cd  0.67743126  0.08727740  0.25332879     1.59600
O801        O  0.68590235  0.16637944  0.20200858    -0.80000
O802        O  0.64604760  0.07149437  0.20057214    -1.90500
Cd803      Cd  0.65161742  0.03137257  0.16755247     1.59900
O804        O  0.70714807  0.14730787  0.25633533    -0.80000
O805        O  0.59934749  0.47652756  0.15778611    -0.78600
C806        C  0.60987215  0.05350979  0.30885583     0.83900
C807        C  0.56819842  0.09599371  0.17711825     0.83600
O808        O  0.56766694  0.49438008  0.19919273    -0.77600
C809        C  0.67766496  0.08741857  0.09227967     0.84400
O810        O  0.59088693  0.04391942  0.27576439    -0.77700
C811        C  0.70451717  0.17329085  0.23582734     0.84500
C812        C  0.70507668  0.02899555  0.23592661     0.84800
O813        O  0.70745069  0.05747173  0.25654879    -0.80100
O814        O  0.97606355  0.02395216  0.33839704    -0.77600
C815        C  0.58573751  0.04160864  0.34551443     0.83400
O816        O  0.95267536  0.40194939  0.38216532    -0.78700
O817        O  0.56960304  0.48742050  0.46143765    -0.80200
O818        O  0.51298646  0.07869254  0.46189872    -0.80000
O819        O  0.95227036  0.04774304  0.38285380    -0.78600
Zn820      Zn  0.50064398  0.49937022  0.36160610     1.55700
O821        O  0.56979795  0.07875460  0.46168027    -0.80000
Cd822      Cd  0.97241554  0.02759545  0.43199762     1.59700
Cd823      Cd  0.97247443  0.44150702  0.43179295     1.59600
O824        O  0.92131559  0.48702392  0.46189483    -0.80000
O825        O  0.50101938  0.49899170  0.41715592    -1.90500
Cd826      Cd  0.55850415  0.02753451  0.43179416     1.59900
O827        O  0.92125135  0.43021192  0.46167506    -0.80000
O828        O  0.59806521  0.04733537  0.38216728    -0.78600
C829        C  0.95840336  0.41427762  0.34551269     0.83900
C830        C  0.95826057  0.04175408  0.34608339     0.83600
O831        O  0.54990529  0.02411806  0.33797365    -0.77600
C832        C  0.54970018  0.09516154  0.46891042     0.84400
O833        O  0.97589547  0.45010971  0.33797179    -0.77700
C834        C  0.90484472  0.45031003  0.46890471     0.84500
C835        C  0.54932282  0.45068485  0.46845797     0.84800
O836        O  0.51258695  0.43040530  0.46143694    -0.80100
C837        C  0.60494438  0.20622670  0.47932818     0.04000
C838        C  0.58612176  0.16839130  0.46164192    -0.12100
C839        C  0.56966515  0.13473057  0.48649277     0.01500
C840        C  0.57189684  0.13858362  0.52880554    -0.10700
C841        C  0.59013249  0.17532358  0.54728011     0.04000
C842        C  0.60672653  0.20931688  0.52282244    -0.10100
H843        H  0.58416035  0.16495209  0.42858148     0.09600
H844        H  0.55907331  0.11248709  0.54771774     0.07100
H845        H  0.62078248  0.23766947  0.53750680     0.07000
O846        O  0.52663012  0.47338759  0.83876370    -0.77600
C847        C  0.91691191  0.45573120  0.84586173     0.83400
O848        O  0.55002544  0.09543074  0.88251038    -0.78700
O849        O  0.93305360  0.00995857  0.96165347    -0.80200
O850        O  0.98968017  0.41863349  0.96215783    -0.80000
O851        O  0.55042638  0.44959703  0.88322214    -0.78600
Zn852      Zn  0.50203793  0.49798299  0.86195320     1.55700
O853        O  0.93287384  0.41858746  0.96193533    -0.80000
Cd854      Cd  0.53026951  0.46975670  0.93233880     1.59700
Cd855      Cd  0.53020105  0.05584912  0.93211893     1.59600
O856        O  0.58139536  0.01034682  0.96215340    -0.80000
O857        O  0.50166225  0.49836270  0.91749792    -1.90500
Cd858      Cd  0.94417580  0.46982613  0.93212104     1.59900
O859        O  0.58144250  0.06715309  0.96192955    -0.80000
O860        O  0.90459014  0.45000007  0.88251396    -0.78600
C861        C  0.54429375  0.08310823  0.84585867     0.83900
C862        C  0.54443574  0.45558412  0.84645050     0.83600
O863        O  0.95274797  0.47322562  0.83832539    -0.77600
C864        C  0.95295768  0.40215632  0.96910977     0.84400
O865        O  0.52679774  0.04727229  0.83832280    -0.77700
C866        C  0.59787370  0.04706930  0.96910368     0.84500
C867        C  0.95332343  0.04670534  0.96860565     0.84800
O868        O  0.99007028  0.06697458  0.96165160    -0.80100
O869        O  0.54699758  0.45302980  0.77669318    -0.77600
C870        C  0.59871609  0.02854218  0.67764793     0.83400
O871        O  0.97894537  0.37818132  0.65801536    -0.78700
O872        O  0.61544456  0.44171493  0.60982945    -0.80200
O873        O  0.64970491  0.44019789  0.75551744    -0.80000
O874        O  0.57481867  0.42520096  0.80931116    -0.78600
Zn875      Zn  0.54914963  0.45088123  0.71877507     1.55700
O876        O  0.66909910  0.48093896  0.70134493    -0.80000
Cd877      Cd  0.58974513  0.41028492  0.75321578     1.59700
Cd878      Cd  0.53342847  0.38048381  0.66734208     1.59600
O879        O  0.55984256  0.35032553  0.75551199    -0.80000
O880        O  0.57397440  0.42605626  0.70063462    -1.90500
Cd881      Cd  0.61954725  0.46660030  0.66733905     1.59900
O882        O  0.51909093  0.33093286  0.70134853    -0.80000
O883        O  0.62185116  0.02108302  0.65801269    -0.78600
C884        C  0.97148718  0.40131822  0.67764810     0.83900
C885        C  0.55648235  0.44353969  0.80972479     0.83600
O886        O  0.57270784  0.00299032  0.70032585    -0.77600
C887        C  0.67589947  0.46880434  0.73490319     0.84400
O888        O  0.99703993  0.42732677  0.70032485    -0.77700
C889        C  0.53123215  0.32413160  0.73490168     0.84500
C890        C  0.58909141  0.41093442  0.59178533     0.84800
O891        O  0.55831209  0.38458304  0.60983284    -0.80100
O892        O  0.99702474  0.06503848  0.69957790    -0.77600
C893        C  0.59859108  0.06552520  0.67749088     0.83400
O894        O  0.57458157  0.14410467  0.80901004    -0.78700
O895        O  0.66895145  0.18328905  0.70207492    -0.80200
O896        O  0.55927675  0.17040552  0.61040172    -0.80000
O897        O  0.97917715  0.09667029  0.65807461    -0.78600
Zn898      Zn  0.54897970  0.09322627  0.71826411     1.55700
O899        O  0.61586053  0.16989272  0.61027415    -0.80000
Cd900      Cd  0.53400383  0.14892584  0.66772627     1.59700
Cd901      Cd  0.58988847  0.17475552  0.75357017     1.59600
O902        O  0.51981347  0.18385430  0.70217739    -0.80000
O903        O  0.57410185  0.14337103  0.70081411    -1.90500
Cd904      Cd  0.61954892  0.14852861  0.66760539     1.59900
O905        O  0.56007633  0.20476627  0.75671011    -0.80000
O906        O  0.62183630  0.09641303  0.65801610    -0.78600
C907        C  0.55618585  0.10724878  0.80919418     0.83900
C908        C  0.97150683  0.06574306  0.67730695     0.83600
O909        O  0.57235814  0.06470874  0.69985245    -0.77600
C910        C  0.58990035  0.17476039  0.59232759     0.84400
O911        O  0.54657648  0.08825804  0.77611296    -0.77700
C912        C  0.53164743  0.20243738  0.73602951     0.84500
C913        C  0.67588990  0.20192520  0.73588011     0.84800
O914        O  0.64991803  0.20451765  0.75644900    -0.80100
O915        O  0.93531862  0.42767338  0.69985662    -0.77600
C916        C  0.93428668  0.02852444  0.67730703     0.83400
O917        O  0.85591529  0.42544540  0.80901095    -0.78700
O918        O  0.81617771  0.48022379  0.70217671    -0.80200
O919        O  0.83012551  0.38416884  0.61027541    -0.80000
O920        O  0.90361749  0.37820290  0.65801103    -0.78600
Zn921      Zn  0.90679921  0.45105167  0.71826654     1.55700
O922        O  0.82961695  0.44075428  0.61039966    -0.80000
Cd923      Cd  0.85149950  0.38048670  0.66760379     1.59700
Cd924      Cd  0.82526775  0.41014287  0.75356801     1.59600
O925        O  0.81674442  0.33108470  0.70207629    -0.80000
O926        O  0.85665532  0.42593186  0.70081290    -1.90500
Cd927      Cd  0.85110280  0.46603042  0.66772319     1.59900
O928        O  0.79550438  0.35011350  0.75644441    -0.80000
O929        O  0.90336118  0.02085467  0.65807089    -0.78600
C930        C  0.89277151  0.44384115  0.80919661     0.83900
C931        C  0.93450376  0.40144380  0.67749091     0.83600
O932        O  0.93498854  0.00300673  0.69958075    -0.77600
C933        C  0.82525634  0.41012756  0.59232777     0.84400
O934        O  0.91176338  0.45345227  0.77611584    -0.77700
C935        C  0.79810386  0.32414414  0.73587894     0.84500
C936        C  0.79759298  0.46838920  0.73602809     0.84800
O937        O  0.79525995  0.43995778  0.75670707    -0.80100
C938        C  0.70895484  0.10237353  0.97925527     0.04000
C939        C  0.71212979  0.10421127  0.02274018    -0.12100
C940        C  0.67818238  0.08762731  0.04725240     0.01500
C941        C  0.64141193  0.06934895  0.02886082    -0.10700
C942        C  0.63747840  0.06706338  0.98656820     0.04000
C943        C  0.67108731  0.08350992  0.96164169    -0.10100
H944        H  0.74050708  0.11829718  0.03737381     0.09600
H945        H  0.61534931  0.05653272  0.04782618     0.07100
H946        H  0.66758497  0.08150852  0.92858873     0.07000
C947        C  0.89765723  0.29107640  0.97925429     0.04000
C948        C  0.91652268  0.32894469  0.96164355    -0.12100
C949        C  0.93296253  0.36255127  0.98657261     0.01500
C950        C  0.93066789  0.35861438  0.02886505    -0.10700
C951        C  0.91238857  0.32184233  0.04725315     0.04000
C952        C  0.89581218  0.28789778  0.02273845    -0.10100
H953        H  0.91852995  0.33244937  0.92859090     0.09600
H954        H  0.94347876  0.38467470  0.04783245     0.07100
H955        H  0.88172578  0.25951966  0.03736981     0.07000
C956        C  0.89797023  0.10206228  0.97874547     0.04000
C957        C  0.91681988  0.08321640  0.96108275    -0.12100
C958        C  0.93356746  0.06646120  0.98600171     0.01500
C959        C  0.93158591  0.06843072  0.02831250    -0.10700
C960        C  0.91328674  0.08672813  0.04668331     0.04000
C961        C  0.89641261  0.10361094  0.02219963    -0.10100
H962        H  0.91854078  0.08150283  0.92802416     0.09600
H963        H  0.94453392  0.05547627  0.04731273     0.07100
H964        H  0.88230051  0.11772163  0.03686417     0.07000
O965        O  0.86327889  0.13675666  0.96804641    -0.77600
C966        C  0.88018430  0.25552652  0.95215468     0.83400
O967        O  0.74015210  0.11760914  0.91309851    -0.78700
O968        O  0.82524113  0.23126209  0.82682237    -0.80200
O969        O  0.91128552  0.17513870  0.82692156    -0.80000
O970        O  0.88230678  0.11772768  0.91276069    -0.78600
Zn971      Zn  0.83508102  0.16495344  0.94583186     1.55700
O972        O  0.91168413  0.23149848  0.82698517    -0.80000
Cd973      Cd  0.86265827  0.13737639  0.86327820     1.59700
Cd974      Cd  0.77939293  0.13704300  0.86328007     1.59600
O975        O  0.82489489  0.08875011  0.82692156    -0.80000
O976        O  0.83500252  0.16503312  0.88470430    -1.90500
Cd977      Cd  0.86299435  0.22064255  0.86327884     1.59900
O978        O  0.76853560  0.08835341  0.82698552    -0.80000
O979        O  0.88242752  0.25988266  0.91309653    -0.78600
C980        C  0.74450688  0.11984992  0.95215689     0.83900
C981        C  0.88021825  0.11981662  0.95181327     0.83600
O982        O  0.86326987  0.22143650  0.96825892    -0.77600
C983        C  0.92644640  0.21078967  0.81564977     0.84400
O984        O  0.77859695  0.13676357  0.96826166    -0.77700
C985        C  0.78924376  0.07359038  0.81564983     0.84500
C986        C  0.78955592  0.21048205  0.81553239     0.84800
O987        O  0.76877553  0.17479763  0.82682419    -0.80100
C988        C  0.77146659  0.03793323  0.78859622     0.04000
C989        C  0.73238874  0.02084944  0.77485399    -0.12100
C990        C  0.71599054  0.48740919  0.74957244     0.01500
C991        C  0.73780875  0.47072206  0.73795468    -0.10700
C992        C  0.77617256  0.48697485  0.75059840     0.04000
C993        C  0.79330531  0.02049380  0.77586448    -0.10100
H994        H  0.71468523  0.03331767  0.78370609     0.09600
H995        H  0.72487620  0.44497452  0.71852254     0.07100
H996        H  0.82339362  0.03278249  0.78540048     0.07000
C997        C  0.96210395  0.22856596  0.78859625     0.01400
C998        C  0.97918742  0.26764296  0.77485244    -0.12100
C999        C  0.51262812  0.28404074  0.74957096     0.01500
C1000       C  0.52931583  0.26222261  0.73795418    -0.10700
C1001       C  0.51306301  0.22385925  0.75059955     0.04000
C1002       C  0.97954371  0.20672719  0.77586600    -0.10100
H1003       H  0.96671903  0.28534600  0.78370343     0.09600
H1004       H  0.55506290  0.27515443  0.71852208     0.07100
H1005       H  0.96725522  0.17664021  0.78540279     0.07000
C1006       C  0.77176447  0.22827227  0.78859634     0.04000
C1007       C  0.73240420  0.20618965  0.77547751    -0.12100
C1008       C  0.71604051  0.22332177  0.75046878     0.01500
C1009       C  0.73816164  0.26187015  0.73845621    -0.10700
C1010       C  0.77671025  0.28399368  0.75046812     0.04000
C1011       C  0.79384497  0.26763221  0.77547655    -0.10100
H1012       H  0.71449825  0.17593881  0.78458577     0.09600
H1013       H  0.72529026  0.27473948  0.71919531     0.07100
H1014       H  0.82409669  0.28554010  0.78458446     0.07000
O1015       O  0.63936627  0.86063438  0.46821994    -0.77600
C1016       C  0.62243778  0.74182491  0.45227760     0.83400
O1017       O  0.76248997  0.87980302  0.41321500    -0.78700
O1018       O  0.67739306  0.76614243  0.32692369    -0.80200
O1019       O  0.59133037  0.82225245  0.32700484    -0.80000
O1020       O  0.62034688  0.87965391  0.41290616    -0.78600
Zn1021     Zn  0.66757460  0.83242762  0.44600014     1.55700
O1022       O  0.59094605  0.76590142  0.32707502    -0.80000
Cd1023     Cd  0.63997622  0.86002455  0.36338854     1.59700
Cd1024     Cd  0.72323699  0.86036070  0.36339773     1.59600
O1025       O  0.67774859  0.90866943  0.32700413    -0.80000
O1026       O  0.66763289  0.83236791  0.38484430    -1.90500
Cd1027     Cd  0.63963903  0.77676413  0.36339677     1.59900
O1028       O  0.73409971  0.90905298  0.32707467    -0.80000
O1029       O  0.62019758  0.73751187  0.41321314    -0.78600
C1030       C  0.75817804  0.87756511  0.45227982     0.83900
C1031       C  0.62242842  0.87757248  0.45196461     0.83600
O1032       O  0.63936481  0.77590299  0.46841675    -0.77600
C1033       C  0.57617879  0.78660320  0.31572076     0.84400
O1034       O  0.72409981  0.86063861  0.46841957    -0.77700
C1035       C  0.71339810  0.92382040  0.31571997     0.84500
C1036       C  0.71307632  0.78692283  0.31562337     0.84800
O1037       O  0.73385707  0.82260530  0.32692528    -0.80100
C1038       C  0.73086183  0.76913839  0.28865628     0.04000
C1039       C  0.70877374  0.72978078  0.27551385    -0.12100
C1040       C  0.72589672  0.71343283  0.25046500     0.01500
C1041       C  0.76443758  0.73556711  0.23843837    -0.10700
C1042       C  0.78657018  0.77410719  0.25046682     0.04000
C1043       C  0.77022020  0.79122781  0.27551583    -0.10100
H1044       H  0.67852673  0.71186804  0.28463101     0.09600
H1045       H  0.77729682  0.72270979  0.21914655     0.07100
H1046       H  0.78813172  0.82147396  0.28463404     0.07000
C1047       C  0.73118130  0.95946224  0.28861788     0.04000
C1048       C  0.77025232  0.97651521  0.27484231    -0.12100
C1049       C  0.78664627  0.50992350  0.24949935     0.01500
C1050       C  0.76482868  0.52660615  0.23785654    -0.10700
C1051       C  0.72648048  0.51039653  0.25053516     0.04000
C1052       C  0.70935201  0.97690912  0.27585788    -0.10100
H1053       H  0.78795091  0.96404629  0.28371321     0.09600
H1054       H  0.77775335  0.55232456  0.21838012     0.07100
H1055       H  0.67927356  0.96464860  0.28541400     0.07000
C1056       C  0.54053662  0.76882056  0.28861906     0.04000
C1057       C  0.52348399  0.72975048  0.27484205    -0.12100
C1058       C  0.99007543  0.71335706  0.24949935     0.01500
C1059       C  0.97339258  0.73517490  0.23785779    -0.10700
C1060       C  0.98960208  0.77352245  0.25053765     0.04000
C1061       C  0.52308944  0.79064991  0.27586056    -0.10100
H1062       H  0.53595346  0.71205183  0.28371199     0.09600
H1063       H  0.94767356  0.72225063  0.21838066     0.07100
H1064       H  0.53534980  0.82072728  0.28541744     0.07000
C1065       C  0.79377807  0.89506230  0.47932938     0.04000
C1066       C  0.83161289  0.91388268  0.46164035    -0.12100
C1067       C  0.86527571  0.93034639  0.48648862     0.01500
C1068       C  0.86142552  0.92812448  0.52880156    -0.10700
C1069       C  0.82468704  0.90988989  0.54727971     0.04000
C1070       C  0.79069099  0.89328784  0.52282458    -0.10100
H1071       H  0.83505011  0.91583767  0.42857943     0.09600
H1072       H  0.88752420  0.94095362  0.54771162     0.07100
H1073       H  0.76233962  0.87923263  0.53751099     0.07000
C1074       C  0.60466284  0.89534065  0.47886266     0.04000
C1075       C  0.58582749  0.91417251  0.46113195    -0.12100
C1076       C  0.56905945  0.93094816  0.48597619     0.01500
C1077       C  0.57100519  0.92901414  0.52830494    -0.10700
C1078       C  0.58929139  0.91072963  0.54675800     0.04000
C1079       C  0.60618619  0.89382627  0.52232731    -0.10100
H1080       H  0.58413187  0.91586093  0.42806651     0.09600
H1081       H  0.55804159  0.94198397  0.54725063     0.07100
H1082       H  0.62028836  0.87972539  0.53703964     0.07000
O1083       O  0.95569230  0.54431543  0.27632103    -0.77600
C1084       C  0.90389498  0.96880686  0.17726968     0.83400
O1085       O  0.52374040  0.61928363  0.15770733    -0.78700
O1086       O  0.88711676  0.55574813  0.10971671    -0.80200
O1087       O  0.85294642  0.55716170  0.25535150    -0.80000
O1088       O  0.92787675  0.57213624  0.30897476    -0.78600
Zn1089     Zn  0.95352331  0.54648076  0.21839240     1.55700
O1090       O  0.83350853  0.51637706  0.20122707    -0.80000
Cd1091     Cd  0.91291305  0.58709110  0.25295156     1.59700
Cd1092     Cd  0.96924187  0.61696189  0.16714671     1.59600
O1093       O  0.94283357  0.64705759  0.25534723    -0.80000
O1094       O  0.92867704  0.57132688  0.20037152    -1.90500
Cd1095     Cd  0.88304244  0.53076379  0.16714399     1.59900
O1096       O  0.98362840  0.66649465  0.20123111    -0.80000
O1097       O  0.88071965  0.97626553  0.15770623    -0.78600
C1098       C  0.53119822  0.59610661  0.17726849     0.83900
C1099       C  0.94621312  0.55379881  0.30936211     0.83600
O1100       O  0.92994352  0.99436908  0.19990631    -0.77600
C1101       C  0.82673347  0.52852101  0.23479059     0.84400
O1102       O  0.50563516  0.57005757  0.19990421    -0.77700
C1103       C  0.97147846  0.67327017  0.23479026     0.84500
C1104       C  0.91346324  0.58654645  0.09169117     0.84800
O1105       O  0.94425942  0.61289222  0.10972008    -0.80100
O1106       O  0.50562447  0.93234128  0.19919019    -0.77600
C1107       C  0.90400783  0.93180723  0.17711956     0.83400
O1108       O  0.92810842  0.85328904  0.30869962    -0.78700
O1109       O  0.83362216  0.81409910  0.20200793    -0.80200
O1110       O  0.94324841  0.82676515  0.11033225    -0.80000
O1111       O  0.52347789  0.90065725  0.15779039    -0.78600
Zn1112     Zn  0.95366304  0.90414085  0.21790614     1.55700
O1113       O  0.88662750  0.82722753  0.11020319    -0.80000
Cd1114     Cd  0.96863082  0.84838942  0.16755640     1.59700
Cd1115     Cd  0.91272832  0.82258069  0.25333282     1.59600
O1116       O  0.98285965  0.81352186  0.20208488    -0.80000
O1117       O  0.92850908  0.85396085  0.20057439    -1.90500
Cd1118     Cd  0.88299576  0.84875645  0.16743404     1.59900
O1119       O  0.94253055  0.79255762  0.25655332    -0.80000
O1120       O  0.88072413  0.90088814  0.15770794    -0.78600
C1121       C  0.94650060  0.89014269  0.30885500     0.83900
C1122       C  0.53115082  0.93162017  0.17695252     0.83600
O1123       O  0.93026513  0.93263774  0.19945578    -0.77600
C1124       C  0.91259175  0.82235351  0.09227994     0.84400
O1125       O  0.95608897  0.90912669  0.27576279    -0.77700
C1126       C  0.97100446  0.79492780  0.23592945     0.84500
C1127       C  0.82671244  0.79548919  0.23582983     0.84800
O1128       O  0.85269761  0.79286564  0.25634204    -0.80100
O1129       O  0.56736941  0.56973916  0.19945803    -0.77600
C1130       C  0.56838611  0.96885441  0.17695237     0.83400
O1131       O  0.64672604  0.57190206  0.30869849    -0.78700
O1132       O  0.68648142  0.51714015  0.20208283    -0.80200
O1133       O  0.67278941  0.61338121  0.11020396    -0.80000
O1134       O  0.59911632  0.61927423  0.15770241    -0.78600
Zn1135     Zn  0.59586841  0.54634191  0.21790733     1.55700
O1136       O  0.67324766  0.55675868  0.11032970    -0.80000
Cd1137     Cd  0.65125030  0.61700641  0.16743188     1.59700
Cd1138     Cd  0.67743133  0.58727740  0.25332880     1.59600
O1139       O  0.68590222  0.66637940  0.20200865    -0.80000
O1140       O  0.64604773  0.57149446  0.20057213    -1.90500
Cd1141     Cd  0.65161746  0.53137254  0.16755248     1.59900
O1142       O  0.70714821  0.64730793  0.25633529    -0.80000
O1143       O  0.59934754  0.97652755  0.15778610    -0.78600
C1144       C  0.60987208  0.55350975  0.30885581     0.83900
C1145       C  0.56819841  0.59599366  0.17711826     0.83600
O1146       O  0.56766699  0.99438009  0.19919272    -0.77600
C1147       C  0.67766496  0.58741852  0.09227967     0.84400
O1148       O  0.59088681  0.54391936  0.27576439    -0.77700
C1149       C  0.70451722  0.67329088  0.23582732     0.84500
C1150       C  0.70507674  0.52899559  0.23592662     0.84800
O1151       O  0.70745085  0.55747184  0.25654873    -0.80100
O1152       O  0.97606359  0.52395215  0.33839701    -0.77600
C1153       C  0.58573752  0.54160865  0.34551443     0.83400
O1154       O  0.95267543  0.90194936  0.38216531    -0.78700
O1155       O  0.56960285  0.98742048  0.46143788    -0.80200
O1156       O  0.51298655  0.57869251  0.46189873    -0.80000
O1157       O  0.95227042  0.54774299  0.38285380    -0.78600
Zn1158     Zn  0.50064404  0.99937019  0.36160610     1.55700
O1159       O  0.56979802  0.57875456  0.46168029    -0.80000
Cd1160     Cd  0.97241561  0.52759541  0.43199762     1.59700
Cd1161     Cd  0.97247450  0.94150702  0.43179294     1.59600
O1162       O  0.92131548  0.98702393  0.46189481    -0.80000
O1163       O  0.50101944  0.99899179  0.41715593    -1.90500
Cd1164     Cd  0.55850420  0.52753447  0.43179413     1.59900
O1165       O  0.92125147  0.93021205  0.46167509    -0.80000
O1166       O  0.59806530  0.54733554  0.38216726    -0.78600
C1167       C  0.95840344  0.91427760  0.34551269     0.83900
C1168       C  0.95826060  0.54175403  0.34608339     0.83600
O1169       O  0.54990529  0.52411800  0.33797372    -0.77600
C1170       C  0.54970027  0.59516153  0.46891042     0.84400
O1171       O  0.97589555  0.95010969  0.33797181    -0.77700
C1172       C  0.90484472  0.95031006  0.46890473     0.84500
C1173       C  0.54932267  0.95068479  0.46845804     0.84800
O1174       O  0.51258682  0.93040523  0.46143694    -0.80100
C1175       C  0.60494432  0.70622674  0.47932818     0.04000
C1176       C  0.58612184  0.66839135  0.46164192    -0.12100
C1177       C  0.56966523  0.63473060  0.48649275     0.01500
C1178       C  0.57189681  0.63858370  0.52880553    -0.10700
C1179       C  0.59013257  0.67532364  0.54728011     0.04000
C1180       C  0.60672662  0.70931694  0.52282245    -0.10100
H1181       H  0.58416051  0.66495216  0.42858134     0.09600
H1182       H  0.55907312  0.61248701  0.54771785     0.07100
H1183       H  0.62078259  0.73766945  0.53750675     0.07000
O1184       O  0.52663006  0.97338758  0.83876367    -0.77600
C1185       C  0.91691193  0.95573123  0.84586173     0.83400
O1186       O  0.55002555  0.59543082  0.88251037    -0.78700
O1187       O  0.93305365  0.50995851  0.96165371    -0.80200
O1188       O  0.98968014  0.91863348  0.96215782    -0.80000
O1189       O  0.55042629  0.94959698  0.88322213    -0.78600
Zn1190     Zn  0.50203807  0.99798316  0.86195319     1.55700
O1191       O  0.93287377  0.91858741  0.96193533    -0.80000
Cd1192     Cd  0.53026955  0.96975665  0.93233881     1.59700
Cd1193     Cd  0.53020093  0.55584909  0.93211891     1.59600
O1194       O  0.58139541  0.51034682  0.96215340    -0.80000
O1195       O  0.50166235  0.99836269  0.91749793    -1.90500
Cd1196     Cd  0.94417585  0.96982610  0.93212104     1.59900
O1197       O  0.58144234  0.56715298  0.96192955    -0.80000
O1198       O  0.90459022  0.95000019  0.88251398    -0.78600
C1199       C  0.54429384  0.58310824  0.84585868     0.83900
C1200       C  0.54443566  0.95558408  0.84645048     0.83600
O1201       O  0.95274799  0.97322564  0.83832534    -0.77600
C1202       C  0.95295765  0.90215630  0.96910976     0.84400
O1203       O  0.52679779  0.54727226  0.83832288    -0.77700
C1204       C  0.59787366  0.54706931  0.96910368     0.84500
C1205       C  0.95332348  0.54670531  0.96860575     0.84800
O1206       O  0.99007029  0.56697454  0.96165159    -0.80100
O1207       O  0.54699761  0.95302979  0.77669316    -0.77600
C1208       C  0.59871615  0.52854220  0.67764793     0.83400
O1209       O  0.97894535  0.87818132  0.65801543    -0.78700
O1210       O  0.61544440  0.94171489  0.60982948    -0.80200
O1211       O  0.64970499  0.94019786  0.75551745    -0.80000
O1212       O  0.57481860  0.92520089  0.80931120    -0.78600
Zn1213     Zn  0.54914951  0.95088121  0.71877507     1.55700
O1214       O  0.66909916  0.98093891  0.70134492    -0.80000
Cd1215     Cd  0.58974528  0.91028508  0.75321577     1.59700
Cd1216     Cd  0.53342832  0.88048377  0.66734208     1.59600
O1217       O  0.55984260  0.85032556  0.75551192    -0.80000
O1218       O  0.57397431  0.92605626  0.70063461    -1.90500
Cd1219     Cd  0.61954728  0.96660027  0.66733906     1.59900
O1220       O  0.51909078  0.83093285  0.70134858    -0.80000
O1221       O  0.62185122  0.52108304  0.65801267    -0.78600
C1222       C  0.97148719  0.90131828  0.67764807     0.83900
C1223       C  0.55648232  0.94353966  0.80972479     0.83600
O1224       O  0.57270793  0.50299032  0.70032583    -0.77600
C1225       C  0.67589952  0.96880429  0.73490318     0.84400
O1226       O  0.99703995  0.92732686  0.70032479    -0.77700
C1227       C  0.53123208  0.82413162  0.73490170     0.84500
C1228       C  0.58909127  0.91093441  0.59178533     0.84800
O1229       O  0.55831192  0.88458300  0.60983280    -0.80100
O1230       O  0.99702466  0.56503845  0.69957796    -0.77600
C1231       C  0.59859107  0.56552522  0.67749088     0.83400
O1232       O  0.57458147  0.64410463  0.80901002    -0.78700
O1233       O  0.66895152  0.68328919  0.70207486    -0.80200
O1234       O  0.55927676  0.67040553  0.61040169    -0.80000
O1235       O  0.97917716  0.59667025  0.65807456    -0.78600
Zn1236     Zn  0.54897971  0.59322621  0.71826411     1.55700
O1237       O  0.61586052  0.66989272  0.61027417    -0.80000
Cd1238     Cd  0.53400389  0.64892579  0.66772626     1.59700
Cd1239     Cd  0.58988850  0.67475547  0.75357018     1.59600
O1240       O  0.51981350  0.68385426  0.70217736    -0.80000
O1241       O  0.57410186  0.64337098  0.70081414    -1.90500
Cd1242     Cd  0.61954881  0.64852860  0.66760540     1.59900
O1243       O  0.56007626  0.70476622  0.75671015    -0.80000
O1244       O  0.62183625  0.59641310  0.65801614    -0.78600
C1245       C  0.55618581  0.60724874  0.80919418     0.83900
C1246       C  0.97150677  0.56574304  0.67730696     0.83600
O1247       O  0.57235807  0.56470865  0.69985243    -0.77600
C1248       C  0.58990039  0.67476044  0.59232759     0.84400
O1249       O  0.54657639  0.58825798  0.77611297    -0.77700
C1250       C  0.53164741  0.70243737  0.73602948     0.84500
C1251       C  0.67588993  0.70192526  0.73588011     0.84800
O1252       O  0.64991802  0.70451758  0.75644904    -0.80100
O1253       O  0.93531857  0.92767338  0.69985661    -0.77600
C1254       C  0.93428663  0.52852439  0.67730701     0.83400
O1255       O  0.85591525  0.92544530  0.80901100    -0.78700
O1256       O  0.81617788  0.98022393  0.70217675    -0.80200
O1257       O  0.83012540  0.88416876  0.61027542    -0.80000
O1258       O  0.90361746  0.87820293  0.65801102    -0.78600
Zn1259     Zn  0.90679924  0.95105164  0.71826655     1.55700
O1260       O  0.82961704  0.94075428  0.61039966    -0.80000
Cd1261     Cd  0.85149963  0.88048687  0.66760379     1.59700
Cd1262     Cd  0.82526782  0.91014284  0.75356802     1.59600
O1263       O  0.81674433  0.83108476  0.70207622    -0.80000
O1264       O  0.85665541  0.92593187  0.70081292    -1.90500
Cd1265     Cd  0.85110288  0.96603040  0.66772320     1.59900
O1266       O  0.79550444  0.85011357  0.75644446    -0.80000
O1267       O  0.90336109  0.52085464  0.65807095    -0.78600
C1268       C  0.89277146  0.94384112  0.80919663     0.83900
C1269       C  0.93450374  0.90144384  0.67749089     0.83600
O1270       O  0.93498855  0.50300670  0.69958070    -0.77600
C1271       C  0.82525630  0.91012752  0.59232778     0.84400
O1272       O  0.91176328  0.95345225  0.77611583    -0.77700
C1273       C  0.79810381  0.82414420  0.73587891     0.84500
C1274       C  0.79759305  0.96838923  0.73602806     0.84800
O1275       O  0.79526000  0.93995779  0.75670701    -0.80100
C1276       C  0.70895484  0.60237358  0.97925525     0.04000
C1277       C  0.71212978  0.60421122  0.02274017    -0.12100
C1278       C  0.67818239  0.58762726  0.04725239     0.01500
C1279       C  0.64141184  0.56934896  0.02886088    -0.10700
C1280       C  0.63747838  0.56706352  0.98656820     0.04000
C1281       C  0.67108729  0.58350998  0.96164168    -0.10100
H1282       H  0.74050715  0.61829709  0.03737382     0.09600
H1283       H  0.61534975  0.55653294  0.04782586     0.07100
H1284       H  0.66758496  0.58150850  0.92858883     0.07000
C1285       C  0.89765720  0.79107640  0.97925429     0.04000
C1286       C  0.91652273  0.82894469  0.96164355    -0.12100
C1287       C  0.93296257  0.86255128  0.98657261     0.01500
C1288       C  0.93066799  0.85861440  0.02886503    -0.10700
C1289       C  0.91238869  0.82184236  0.04725316     0.04000
C1290       C  0.89581224  0.78789779  0.02273846    -0.10100
H1291       H  0.91853003  0.83244936  0.92859090     0.09600
H1292       H  0.94347893  0.88467487  0.04783253     0.07100
H1293       H  0.88172596  0.75951979  0.03736978     0.07000
C1294       C  0.89797022  0.60206223  0.97874544     0.04000
C1295       C  0.91681993  0.58321638  0.96108276    -0.12100
C1296       C  0.93356751  0.56646120  0.98600176     0.01500
C1297       C  0.93158592  0.56843068  0.02831259    -0.10700
C1298       C  0.91328667  0.58672810  0.04668331     0.04000
C1299       C  0.89641250  0.60361086  0.02219960    -0.10100
H1300       H  0.91854086  0.58150281  0.92802417     0.09600
H1301       H  0.94453370  0.55547648  0.04731252     0.07100
H1302       H  0.88230038  0.61772148  0.03686405     0.07000
O1303       O  0.86327887  0.63675660  0.96804643    -0.77600
C1304       C  0.88018433  0.75552648  0.95215469     0.83400
O1305       O  0.74015220  0.61760927  0.91309849    -0.78700
O1306       O  0.82524111  0.73126206  0.82682235    -0.80200
O1307       O  0.91128557  0.67513873  0.82692155    -0.80000
O1308       O  0.88230695  0.61772783  0.91276069    -0.78600
Zn1309     Zn  0.83508107  0.66495339  0.94583187     1.55700
O1310       O  0.91168420  0.73149854  0.82698523    -0.80000
Cd1311     Cd  0.86265834  0.63737636  0.86327819     1.59700
Cd1312     Cd  0.77939300  0.63704297  0.86328006     1.59600
O1313       O  0.82489491  0.58875006  0.82692156    -0.80000
O1314       O  0.83500258  0.66503307  0.88470429    -1.90500
Cd1315     Cd  0.86299424  0.72064251  0.86327883     1.59900
O1316       O  0.76853563  0.58835339  0.82698555    -0.80000
O1317       O  0.88242755  0.75988261  0.91309654    -0.78600
C1318       C  0.74450691  0.61984997  0.95215688     0.83900
C1319       C  0.88021829  0.61981661  0.95181326     0.83600
O1320       O  0.86326994  0.72143646  0.96825892    -0.77600
C1321       C  0.92644646  0.71078971  0.81564978     0.84400
O1322       O  0.77859696  0.63676357  0.96826170    -0.77700
C1323       C  0.78924376  0.57359036  0.81564985     0.84500
C1324       C  0.78955593  0.71048207  0.81553239     0.84800
O1325       O  0.76877554  0.67479760  0.82682417    -0.80100
C1326       C  0.77146659  0.53793325  0.78859620     0.04000
C1327       C  0.73238865  0.52084959  0.77485399    -0.12100
C1328       C  0.71599055  0.98740914  0.74957246     0.01500
C1329       C  0.73780875  0.97072201  0.73795465    -0.10700
C1330       C  0.77617258  0.98697484  0.75059835     0.04000
C1331       C  0.79330533  0.52049388  0.77586446    -0.10100
H1332       H  0.71468580  0.53331738  0.78370576     0.09600
H1333       H  0.72487621  0.94497455  0.71852257     0.07100
H1334       H  0.82339348  0.53278252  0.78540036     0.07000
C1335       C  0.96210396  0.72856598  0.78859623     0.01400
C1336       C  0.97918743  0.76764297  0.77485244    -0.12100
C1337       C  0.51262806  0.78404076  0.74957097     0.01500
C1338       C  0.52931572  0.76222261  0.73795414    -0.10700
C1339       C  0.51306297  0.72385924  0.75059947     0.04000
C1340       C  0.97954380  0.70672733  0.77586598    -0.10100
H1341       H  0.96671895  0.78534614  0.78370354     0.09600
H1342       H  0.55506302  0.77515456  0.71852182     0.07100
H1343       H  0.96725507  0.67663970  0.78540303     0.07000
C1344       C  0.77176447  0.72827234  0.78859635     0.04000
C1345       C  0.73240431  0.70618988  0.77547747    -0.12100
C1346       C  0.71604051  0.72332188  0.75046882     0.01500
C1347       C  0.73816159  0.76187029  0.73845619    -0.10700
C1348       C  0.77671019  0.78399376  0.75046814     0.04000
C1349       C  0.79384514  0.76763242  0.77547659    -0.10100
H1350       H  0.71449794  0.67593831  0.78458587     0.09600
H1351       H  0.72529035  0.77473939  0.71919549     0.07100
H1352       H  0.82409578  0.78553967  0.78458412     0.07000
loop_ 
_geom_bond_atom_site_label_1 
_geom_bond_atom_site_label_2 
_geom_bond_distance 
_geom_bond_site_symmetry_2 
_ccdc_geom_bond_type 
O1           C17   1.281       .  A
O1           Zn7   2.074       .  S
C2           O18   1.281       .  A
C2           O15   1.281       .  A
C2          C161   1.505       .  S
O3           C16   1.281       .  A
O3          Cd10   2.108       .  S
O4           C22   1.282       .  A
O4          Cd13   2.116       .  S
O5           C19   1.281       .  A
O5           Cd9   2.111       .  S
O6           C17   1.281       .  A
O6           Cd9   2.105       .  S
Zn7          O18   2.070       .  S
Zn7          O20   2.070       .  S
Zn7          O12   1.993       .  S
O8           C19   1.282       .  A
O8          Cd13   2.117       .  S
Cd9          O11   2.111       .  S
Cd9          O12   2.030       .  S
Cd10         O14   2.117       .  S
Cd10         O23   2.116       .  S
Cd10         O12   2.029       .  S
O11          C21   1.281       .  A
O12         Cd13   2.029       .  S
Cd13         O15   2.108       .  S
O14          C21   1.282       .  A
C16          O20   1.281       .  A
C16          C51   1.505       .  S
C17          C60   1.506       .  S
C19          C42   1.507       .  S
C21          C33   1.507       .  S
C22          O23   1.282       .  A
C22          C24   1.508       .  S
C24          C25   1.418       .  A
C24          C29   1.418       .  A
C25          C26   1.413       .  A
C25          H30   1.083       .  S
C26         C135   1.456       .  S
C26          C27   1.382       .  A
C27          C28   1.382       .  A
C27          H31   1.086       .  S
C28         C113   1.456       .  S
C28          C29   1.413       .  A
C29          H32   1.083       .  S
C33          C34   1.416       .  A
C33          C38   1.418       .  A
C34         C373   1.412       .  A
C34          H39   1.084       .  S
C35          C87   1.456       .  S
C35          C36   1.383       .  A
C35         C372   1.412   1_545  A
C36          C37   1.383       .  A
C36          H40   1.086       .  S
C37         C136   1.459       .  S
C37         C376   1.413   1_545  A
C38         C375   1.413       .  A
C38          H41   1.083       .  S
C42          C43   1.416       .  A
C42          C47   1.418       .  A
C43         C720   1.412   1_455  A
C43          H48   1.084       .  S
C44          C89   1.456       .  S
C44          C45   1.383       .  A
C44         C719   1.412       .  A
C45          C46   1.383       .  A
C45          H49   1.086       .  S
C46         C112   1.459       .  S
C46         C723   1.413       .  A
C47         C722   1.413   1_455  A
C47          H50   1.083       .  S
C51          C52   1.419       .  A
C51          C56   1.421       .  A
C52          C53   1.409       .  A
C52          H57   1.084       .  S
C53         C158   1.472       .  S
C53          C54   1.385       .  A
C54          C55   1.395       .  A
C54          H58   1.086       .  S
C55         C257   1.468       .  S
C55          C56   1.411       .  A
C56          H59   1.083       .  S
C60          C61   1.420       .  A
C60          C65   1.420       .  A
C61          C62   1.411       .  A
C61          H66   1.084       .  S
C62         C159   1.475       .  S
C62          C63   1.386       .  A
C63          C64   1.396       .  A
C63          H67   1.086       .  S
C64         C214   1.467       .  S
C64          C65   1.410       .  A
C65          H68   1.083       .  S
O69          C85   1.259       .  A
O69         Zn75   1.893       .  S
C70          O86   1.258       .  A
C70          O83   1.271       .  A
C70          C93   1.471       .  S
O71          C84   1.271       .  A
O71        Cd754   2.141   1_455  S
O72          C90   1.281       .  A
O72         Cd81   2.085       .  S
O73          C87   1.276       .  A
O73         Cd77   2.056       .  S
O74          C85   1.263       .  A
O74         Cd77   2.096       .  S
Zn75        O424   1.888   1_545  S
Zn75        O764   1.888       .  S
Zn75         O80   1.810       .  S
O76          C87   1.278       .  A
O76         Cd81   2.072       .  S
Cd77         O79   2.056       .  S
Cd77         O80   2.029       .  S
Cd78         O82   2.072       .  S
Cd78         O91   2.085       .  S
Cd78        O747   2.141       .  S
Cd78         O80   2.025       .  S
O79          C89   1.276       .  A
O80         Cd81   2.025       .  S
Cd81        O421   2.141   1_545  S
O82          C89   1.278       .  A
O83        Cd419   2.141       .  S
C84          O88   1.258       .  A
C84         C131   1.471       .  S
C85         C154   1.456       .  S
O86        Zn413   1.888       .  S
O88        Zn751   1.888   1_455  S
C90          O91   1.281       .  A
C90         C284   1.467       .  S
O92         C108   1.258       .  A
O92        Zn774   1.884   1_455  S
C93         O109   1.258       .  A
C93         O106   1.271       .  A
O94         C107   1.263       .  A
O94        Cd101   2.089       .  S
O95         C113   1.277       .  A
O95        Cd104   2.069       .  S
O96         C110   1.282       .  A
O96        Cd100   2.087       .  S
O97         C108   1.271       .  A
O97        Cd776   2.141   1_455  S
Zn98        O109   1.889       .  S
Zn98        O111   1.893       .  S
Zn98        O768   1.884       .  S
Zn98        O103   1.810       .  S
O99         C110   1.282       .  A
O99        Cd104   2.087       .  S
Cd100       O102   2.072       .  S
Cd100       O773   2.141       .  S
Cd100       O103   2.025       .  S
Cd101       O105   2.064       .  S
Cd101       O114   2.059       .  S
Cd101       O103   2.028       .  S
O102        C112   1.277       .  A
O103       Cd104   2.024       .  S
Cd104       O106   2.141       .  S
O105        C112   1.277       .  A
C107        O111   1.259       .  A
C107        C153   1.453       .  S
C108        C116   1.471       .  S
C110        C275   1.467       .  S
C113        O114   1.277       .  A
O115        C131   1.258       .  A
O115       Zn121   1.889       .  S
C116        O132   1.258       .  A
C116        O129   1.271       .  A
O117        C130   1.263       .  A
O117       Cd124   2.089       .  S
O118        C136   1.277       .  A
O118       Cd127   2.072       .  S
O119        C133   1.282       .  A
O119       Cd123   2.087       .  S
O120        C131   1.271       .  A
O120       Cd123   2.141       .  S
Zn121       O134   1.893       .  S
Zn121       O470   1.884   1_545  S
Zn121       O126   1.810       .  S
O122        C133   1.282       .  A
O122       Cd127   2.087       .  S
Cd123       O125   2.069       .  S
Cd123       O126   2.024       .  S
Cd124       O128   2.059       .  S
Cd124       O137   2.063       .  S
Cd124       O126   2.028       .  S
O125        C135   1.277       .  A
O126       Cd127   2.025       .  S
Cd127       O467   2.141   1_545  S
O128        C135   1.277       .  A
O129       Cd465   2.141       .  S
C130        O134   1.259       .  A
C130        C139   1.453       .  S
O132       Zn459   1.884       .  S
C133        C264   1.467       .  S
C136        O137   1.277       .  A
O138        C154   1.252       .  A
O138      Zn1158   1.855   1_545  S
C139        O155   1.252       .  A
C139        O152   1.267       .  A
O140        C153   1.267       .  A
O140       Cd147   2.110       .  S
O141        C159   1.281       .  A
O141       Cd488   2.091       .  S
O142        C156   1.281       .  A
O142       Cd822   2.088   1_455  S
O143        C154   1.267       .  A
O143       Cd146   2.119       .  S
Zn144      O1152   1.855   1_455  S
Zn144       O493   1.855       .  S
Zn144       O833   1.855   1_455  S
Zn144       O149   1.810       .  S
O145        C156   1.281       .  A
O145       Cd150   2.089       .  S
Cd146       O818   2.088       .  S
Cd146       O486   2.088   1_545  S
Cd146      O1163   2.029   1_545  S
Cd147       O151   2.089       .  S
Cd147       O836   2.091       .  S
Cd147       O825   2.027       .  S
O148        C158   1.281       .  A
O148       Cd484   2.088       .  S
O149      Cd1160   2.029   1_455  S
O149       Cd823   2.027   1_455  S
O149       Cd488   2.027       .  S
Cd150       O152   2.110       .  S
Cd150       O479   2.091   1_545  S
Cd150       O487   2.027   1_545  S
O151        C158   1.281       .  A
C153        O157   1.252       .  A
O155       Zn482   1.855   1_545  S
C156        C163   1.472       .  S
O157       Zn820   1.855       .  S
C159        O160   1.281       .  A
O160       Cd823   2.091   1_455  S
C161        C162   1.419       .  A
C161        C166   1.421       .  A
C162        C163   1.409       .  A
C162        H167   1.084       .  S
C163        C164   1.385       .  A
C164        C165   1.395       .  A
C164        H168   1.086       .  S
C165        C234   1.468       .  S
C165        C166   1.411       .  A
C166        H169   1.083       .  S
O170        C186   1.252       .  A
O170       Zn176   1.855       .  S
C171        O187   1.252       .  A
C171        O184   1.267       .  A
C171        C254   1.453       .  S
O172        C185   1.267       .  A
O172       Cd179   2.110       .  S
O173        C191   1.281       .  A
O173       Cd520   2.091   1_545  S
O174        C188   1.281       .  A
O174       Cd854   2.087       .  S
O175        C186   1.267       .  A
O175       Cd178   2.119       .  S
Zn176       O863   1.856   1_455  S
Zn176       O527   1.856       .  S
Zn176       O181   1.810       .  S
O177        C188   1.281       .  A
O177       Cd182   2.088       .  S
Cd178       O850   2.087   1_455  S
Cd178       O518   2.087       .  S
Cd178       O181   2.029       .  S
Cd179       O183   2.088       .  S
Cd179       O868   2.091   1_455  S
Cd179       O519   2.027   1_545  S
O180        C190   1.281       .  A
O180       Cd516   2.087   1_545  S
O181       Cd517   2.027       .  S
O181       Cd858   2.027   1_455  S
Cd182       O184   2.110       .  S
Cd182       O511   2.091       .  S
Cd182       O857   2.027       .  S
O183        C190   1.281       .  A
C185        O189   1.252       .  A
C185        C231   1.453       .  S
C186        C209   1.456       .  S
O187       Zn852   1.856       .  S
C188        C273   1.471       .  S
O189       Zn514   1.856   1_545  S
C190        C266   1.471       .  S
C191        O192   1.281       .  A
C191        C282   1.474       .  S
O192       Cd855   2.091       .  S
O193        C209   1.259       .  A
O193       Zn199   1.893       .  S
C194        O210   1.258       .  A
C194        O207   1.271       .  A
C194        C217   1.471       .  S
O195        C208   1.271       .  A
O195       Cd878   2.140       .  S
O196        C214   1.281       .  A
O196       Cd205   2.086       .  S
O197        C211   1.276       .  A
O197       Cd201   2.056       .  S
O198        C209   1.263       .  A
O198       Cd201   2.097       .  S
Zn199       O548   1.887       .  S
Zn199       O888   1.887   1_455  S
Zn199       O204   1.810       .  S
O200        C211   1.278       .  A
O200       Cd205   2.071       .  S
Cd201       O203   2.056       .  S
Cd201       O204   2.029       .  S
Cd202       O206   2.071       .  S
Cd202       O215   2.086       .  S
Cd202       O871   2.140   1_455  S
Cd202       O204   2.025       .  S
O203        C213   1.276       .  A
O204       Cd205   2.025       .  S
Cd205       O545   2.140       .  S
O206        C213   1.278       .  A
O207       Cd543   2.140   1_545  S
C208        O212   1.258       .  A
C208        C255   1.471       .  S
O210       Zn537   1.887   1_545  S
C211        C314   1.456       .  S
O212       Zn875   1.887       .  S
C213        C323   1.456       .  S
C214        O215   1.281       .  A
O216        C232   1.258       .  A
O216       Zn898   1.883       .  S
C217        O233   1.258       .  A
C217        O230   1.271       .  A
O218        C231   1.263       .  A
O218       Cd225   2.089       .  S
O219        C237   1.277       .  A
O219       Cd228   2.068       .  S
O220        C234   1.282       .  A
O220       Cd224   2.088       .  S
O221        C232   1.271       .  A
O221       Cd900   2.140       .  S
Zn222       O233   1.888       .  S
Zn222       O235   1.893       .  S
Zn222       O892   1.883   1_455  S
Zn222       O227   1.810       .  S
O223        C234   1.282       .  A
O223       Cd228   2.087       .  S
Cd224       O226   2.071       .  S
Cd224       O897   2.140   1_455  S
Cd224       O227   2.025       .  S
Cd225       O229   2.063       .  S
Cd225       O238   2.059       .  S
Cd225       O227   2.028       .  S
O226        C236   1.277       .  A
O227       Cd228   2.024       .  S
Cd228       O230   2.140       .  S
O229        C236   1.277       .  A
C231        O235   1.259       .  A
C232        C240   1.470       .  S
C236        C325   1.459       .  S
C237        O238   1.277       .  A
C237        C332   1.456       .  S
O239        C255   1.258       .  A
O239       Zn245   1.888       .  S
C240        O256   1.258       .  A
C240        O253   1.271       .  A
O241        C254   1.263       .  A
O241       Cd248   2.090       .  S
O242        C260   1.277       .  A
O242       Cd251   2.071       .  S
O243        C257   1.282       .  A
O243       Cd247   2.087       .  S
O244        C255   1.271       .  A
O244       Cd247   2.140       .  S
Zn245       O258   1.893       .  S
Zn245       O594   1.883       .  S
Zn245       O250   1.810       .  S
O246        C257   1.282       .  A
O246       Cd251   2.088       .  S
Cd247       O249   2.068       .  S
Cd247       O250   2.024       .  S
Cd248       O252   2.059       .  S
Cd248       O261   2.063       .  S
Cd248       O250   2.028       .  S
O249        C259   1.277       .  A
O250       Cd251   2.025       .  S
Cd251       O591   2.140       .  S
O252        C259   1.277       .  A
O253       Cd589   2.140   1_545  S
C254        O258   1.259       .  A
O256       Zn583   1.883   1_545  S
C259        C334   1.456       .  S
C260        O261   1.277       .  A
C260        C316   1.459       .  S
C262        C304   1.505       .  S
C262        C263   1.421   1_556  A
C262        C267   1.419       .  A
C263        C264   1.411       .  A
C263        H268   1.083       .  S
C264        C265   1.395       .  A
C265        C266   1.385   1_554  A
C265        H269   1.086       .  S
C266        C267   1.409       .  A
C267        H270   1.084       .  S
C271        C290   1.505       .  S
C271        C272   1.419       .  A
C271        C276   1.421   1_556  A
C272        C273   1.409       .  A
C272        H277   1.084       .  S
C273        C274   1.385   1_556  A
C274        C275   1.395       .  A
C274        H278   1.086       .  S
C275        C276   1.411       .  A
C276        H279   1.083       .  S
C280        C305   1.505       .  S
C280        C281   1.420       .  A
C280        C285   1.420   1_556  A
C281        C282   1.411       .  A
C281        H286   1.084       .  S
C282        C283   1.385   1_556  A
C283        C284   1.396       .  A
C283        H287   1.086       .  S
C284        C285   1.410       .  A
C285        H288   1.083       .  S
O289        C305   1.281       .  A
O289       Zn295   2.073       .  S
C290        O306   1.281       .  A
C290        O303   1.281       .  A
O291        C304   1.281       .  A
O291       Cd298   2.108       .  S
O292        C310   1.282       .  A
O292       Cd301   2.115       .  S
O293        C307   1.281       .  A
O293       Cd297   2.110       .  S
O294        C305   1.281       .  A
O294       Cd297   2.105       .  S
Zn295       O306   2.069       .  S
Zn295       O308   2.069       .  S
Zn295       O300   1.992       .  S
O296        C307   1.282       .  A
O296       Cd301   2.117       .  S
Cd297       O299   2.110       .  S
Cd297       O300   2.029       .  S
Cd298       O302   2.117       .  S
Cd298       O311   2.115       .  S
Cd298       O300   2.029       .  S
O299        C309   1.281       .  A
O300       Cd301   2.029       .  S
Cd301       O303   2.108       .  S
O302        C309   1.282       .  A
C304        O308   1.281       .  A
C307        C321   1.507       .  S
C309        C312   1.507       .  S
C310        O311   1.282       .  A
C310        C330   1.507       .  S
C312        C313   1.416       .  A
C312        C317   1.418       .  A
C313        C652   1.411   1_545  A
C313        H318   1.084       .  S
C314        C315   1.383       .  A
C314        C651   1.411       .  A
C315        C316   1.383       .  A
C315        H319   1.086       .  S
C316        C655   1.413       .  A
C317        C654   1.413   1_545  A
C317        H320   1.083       .  S
C321        C322   1.416       .  A
C321        C326   1.418       .  A
C322        C999   1.411       .  A
C322        H327   1.084       .  S
C323        C324   1.383       .  A
C323        C998   1.411   1_455  A
C324        C325   1.383       .  A
C324        H328   1.086       .  S
C325       C1002   1.413   1_455  A
C326       C1001   1.413       .  A
C326        H329   1.083       .  S
C330        C331   1.417       .  A
C330        C335   1.417       .  A
C331        C332   1.413       .  A
C331        H336   1.083       .  S
C332        C333   1.382       .  A
C333        C334   1.382       .  A
C333        H337   1.086       .  S
C334        C335   1.413       .  A
C335        H338   1.083       .  S
O339        C355   1.281       .  A
O339       Zn345   2.074       .  S
C340        O356   1.281       .  A
C340        O353   1.281       .  A
C340        C499   1.505       .  S
O341        C354   1.281       .  A
O341       Cd348   2.108       .  S
O342        C360   1.282       .  A
O342       Cd351   2.116       .  S
O343        C357   1.281       .  A
O343       Cd347   2.111       .  S
O344        C355   1.281       .  A
O344       Cd347   2.105       .  S
Zn345       O356   2.070       .  S
Zn345       O358   2.070       .  S
Zn345       O350   1.993       .  S
O346        C357   1.282       .  A
O346       Cd351   2.117       .  S
Cd347       O349   2.111       .  S
Cd347       O350   2.030       .  S
Cd348       O352   2.117       .  S
Cd348       O361   2.116       .  S
Cd348       O350   2.029       .  S
O349        C359   1.281       .  A
O350       Cd351   2.029       .  S
Cd351       O353   2.108       .  S
O352        C359   1.282       .  A
C354        O358   1.281       .  A
C354        C389   1.505       .  S
C355        C398   1.506       .  S
C357        C380   1.507       .  S
C359        C371   1.507       .  S
C360        O361   1.282       .  A
C360        C362   1.508       .  S
C362        C363   1.418       .  A
C362        C367   1.418       .  A
C363        C364   1.413       .  A
C363        H368   1.083       .  S
C364        C473   1.456       .  S
C364        C365   1.382       .  A
C365        C366   1.382       .  A
C365        H369   1.086       .  S
C366        C451   1.456       .  S
C366        C367   1.413       .  A
C367        H370   1.083       .  S
C371        C372   1.416       .  A
C371        C376   1.418       .  A
C372        H377   1.084       .  S
C373        C425   1.456       .  S
C373        C374   1.383       .  A
C374        C375   1.383       .  A
C374        H378   1.086       .  S
C375        C474   1.459       .  S
C376        H379   1.083       .  S
C380        C381   1.416       .  A
C380        C385   1.418       .  A
C381       C1058   1.412   1_455  A
C381        H386   1.084       .  S
C382        C427   1.456       .  S
C382       C1057   1.412       .  A
C382        C383   1.383       .  A
C383        C384   1.383       .  A
C383        H387   1.086       .  S
C384        C450   1.459       .  S
C384       C1061   1.413       .  A
C385       C1060   1.413   1_455  A
C385        H388   1.083       .  S
C389        C390   1.419       .  A
C389        C394   1.421       .  A
C390        C391   1.409       .  A
C390        H395   1.084       .  S
C391        C496   1.472       .  S
C391        C392   1.385       .  A
C392        C393   1.395       .  A
C392        H396   1.086       .  S
C393        C595   1.468       .  S
C393        C394   1.411       .  A
C394        H397   1.083       .  S
C398        C399   1.420       .  A
C398        C403   1.420       .  A
C399        C400   1.411       .  A
C399        H404   1.084       .  S
C400        C497   1.475       .  S
C400        C401   1.386       .  A
C401        C402   1.396       .  A
C401        H405   1.086       .  S
C402        C552   1.467       .  S
C402        C403   1.410       .  A
C403        H406   1.083       .  S
O407        C423   1.259       .  A
O407       Zn413   1.893       .  S
C408        O424   1.258       .  A
C408        O421   1.271       .  A
C408        C431   1.471       .  S
O409        C422   1.271       .  A
O409      Cd1092   2.141   1_455  S
O410        C428   1.281       .  A
O410       Cd419   2.085       .  S
O411        C425   1.276       .  A
O411       Cd415   2.056       .  S
O412        C423   1.263       .  A
O412       Cd415   2.096       .  S
Zn413      O1102   1.888       .  S
Zn413       O418   1.810       .  S
O414        C425   1.278       .  A
O414       Cd419   2.072       .  S
Cd415       O417   2.056       .  S
Cd415       O418   2.029       .  S
Cd416      O1085   2.141       .  S
Cd416       O420   2.072       .  S
Cd416       O429   2.085       .  S
Cd416       O418   2.025       .  S
O417        C427   1.276       .  A
O418       Cd419   2.025       .  S
O420        C427   1.278       .  A
C422        O426   1.258       .  A
C422        C469   1.471       .  S
C423        C492   1.456       .  S
O426      Zn1089   1.888   1_455  S
C428        O429   1.281       .  A
C428        C622   1.467       .  S
O430        C446   1.258       .  A
O430      Zn1112   1.884   1_455  S
C431        O447   1.258       .  A
C431        O444   1.271       .  A
O432        C445   1.263       .  A
O432       Cd439   2.089       .  S
O433        C451   1.277       .  A
O433       Cd442   2.069       .  S
O434        C448   1.282       .  A
O434       Cd438   2.087       .  S
O435        C446   1.271       .  A
O435      Cd1114   2.141   1_455  S
Zn436      O1106   1.884       .  S
Zn436       O447   1.889       .  S
Zn436       O449   1.893       .  S
Zn436       O441   1.810       .  S
O437        C448   1.282       .  A
O437       Cd442   2.087       .  S
Cd438      O1111   2.141       .  S
Cd438       O440   2.072       .  S
Cd438       O441   2.025       .  S
Cd439       O443   2.064       .  S
Cd439       O452   2.059       .  S
Cd439       O441   2.028       .  S
O440        C450   1.277       .  A
O441       Cd442   2.024       .  S
Cd442       O444   2.141       .  S
O443        C450   1.277       .  A
C445        O449   1.259       .  A
C445        C491   1.453       .  S
C446        C454   1.471       .  S
C448        C613   1.467       .  S
C451        O452   1.277       .  A
O453        C469   1.258       .  A
O453       Zn459   1.889       .  S
C454        O470   1.258       .  A
C454        O467   1.271       .  A
O455        C468   1.263       .  A
O455       Cd462   2.089       .  S
O456        C474   1.277       .  A
O456       Cd465   2.072       .  S
O457        C471   1.282       .  A
O457       Cd461   2.087       .  S
O458        C469   1.271       .  A
O458       Cd461   2.141       .  S
Zn459       O472   1.893       .  S
Zn459       O464   1.810       .  S
O460        C471   1.282       .  A
O460       Cd465   2.087       .  S
Cd461       O463   2.069       .  S
Cd461       O464   2.024       .  S
Cd462       O466   2.059       .  S
Cd462       O475   2.063       .  S
Cd462       O464   2.028       .  S
O463        C473   1.277       .  A
O464       Cd465   2.025       .  S
O466        C473   1.277       .  A
C468        O472   1.259       .  A
C468        C477   1.453       .  S
C471        C602   1.467       .  S
C474        O475   1.277       .  A
O476        C492   1.252       .  A
O476       Zn820   1.855       .  S
C477        O493   1.252       .  A
C477        O490   1.267       .  A
O478        C491   1.267       .  A
O478       Cd485   2.110       .  S
O479        C497   1.281       .  A
O480        C494   1.281       .  A
O480      Cd1160   2.088   1_455  S
O481        C492   1.267       .  A
O481       Cd484   2.119       .  S
Zn482       O814   1.855   1_465  S
Zn482      O1171   1.855   1_455  S
Zn482       O487   1.810       .  S
O483        C494   1.281       .  A
O483       Cd488   2.089       .  S
Cd484      O1156   2.088       .  S
Cd484       O825   2.029       .  S
Cd485       O489   2.089       .  S
Cd485      O1174   2.091       .  S
Cd485      O1163   2.027       .  S
O486        C496   1.281       .  A
O487       Cd822   2.029   1_465  S
O487      Cd1161   2.027   1_455  S
Cd488       O490   2.110       .  S
O489        C496   1.281       .  A
C491        O495   1.252       .  A
C494        C501   1.472       .  S
O495      Zn1158   1.855       .  S
C497        O498   1.281       .  A
O498      Cd1161   2.091   1_455  S
C499        C500   1.419       .  A
C499        C504   1.421       .  A
C500        C501   1.409       .  A
C500        H505   1.084       .  S
C501        C502   1.385       .  A
C502        C503   1.395       .  A
C502        H506   1.086       .  S
C503        C572   1.468       .  S
C503        C504   1.411       .  A
C504        H507   1.083       .  S
O508        C524   1.252       .  A
O508       Zn514   1.855       .  S
C509        O525   1.252       .  A
C509        O522   1.267       .  A
C509        C592   1.453       .  S
O510        C523   1.267       .  A
O510       Cd517   2.110       .  S
O511        C529   1.281       .  A
O512        C526   1.281       .  A
O512      Cd1192   2.087       .  S
O513        C524   1.267       .  A
O513       Cd516   2.119       .  S
Zn514      O1201   1.856   1_455  S
Zn514       O519   1.810       .  S
O515        C526   1.281       .  A
O515       Cd520   2.088       .  S
Cd516      O1188   2.087   1_455  S
Cd516       O519   2.029       .  S
Cd517       O521   2.088       .  S
Cd517      O1206   2.091   1_455  S
O518        C528   1.281       .  A
O519      Cd1196   2.027   1_455  S
Cd520       O522   2.110       .  S
Cd520      O1195   2.027       .  S
O521        C528   1.281       .  A
C523        O527   1.252       .  A
C523        C569   1.453       .  S
C524        C547   1.456       .  S
O525      Zn1190   1.856       .  S
C526        C611   1.471       .  S
C528        C604   1.471       .  S
C529        O530   1.281       .  A
C529        C620   1.474       .  S
O530      Cd1193   2.091       .  S
O531        C547   1.259       .  A
O531       Zn537   1.893       .  S
C532        O548   1.258       .  A
C532        O545   1.271       .  A
C532        C555   1.471       .  S
O533        C546   1.271       .  A
O533      Cd1216   2.140       .  S
O534        C552   1.281       .  A
O534       Cd543   2.086       .  S
O535        C549   1.276       .  A
O535       Cd539   2.056       .  S
O536        C547   1.263       .  A
O536       Cd539   2.097       .  S
Zn537      O1226   1.887   1_455  S
Zn537       O542   1.810       .  S
O538        C549   1.278       .  A
O538       Cd543   2.071       .  S
Cd539       O541   2.056       .  S
Cd539       O542   2.029       .  S
Cd540      O1209   2.140   1_455  S
Cd540       O544   2.071       .  S
Cd540       O553   2.086       .  S
Cd540       O542   2.025       .  S
O541        C551   1.276       .  A
O542       Cd543   2.025       .  S
O544        C551   1.278       .  A
C546        O550   1.258       .  A
C546        C593   1.471       .  S
C549        C652   1.456       .  S
O550      Zn1213   1.887       .  S
C551        C661   1.456       .  S
C552        O553   1.281       .  A
O554        C570   1.258       .  A
O554      Zn1236   1.883       .  S
C555        O571   1.258       .  A
C555        O568   1.271       .  A
O556        C569   1.263       .  A
O556       Cd563   2.089       .  S
O557        C575   1.277       .  A
O557       Cd566   2.068       .  S
O558        C572   1.282       .  A
O558       Cd562   2.088       .  S
O559        C570   1.271       .  A
O559      Cd1238   2.140       .  S
Zn560      O1230   1.883   1_455  S
Zn560       O571   1.888       .  S
Zn560       O573   1.893       .  S
Zn560       O565   1.810       .  S
O561        C572   1.282       .  A
O561       Cd566   2.087       .  S
Cd562      O1235   2.140   1_455  S
Cd562       O564   2.071       .  S
Cd562       O565   2.025       .  S
Cd563       O567   2.063       .  S
Cd563       O576   2.059       .  S
Cd563       O565   2.028       .  S
O564        C574   1.277       .  A
O565       Cd566   2.024       .  S
Cd566       O568   2.140       .  S
O567        C574   1.277       .  A
C569        O573   1.259       .  A
C570        C578   1.470       .  S
C574        C663   1.459       .  S
C575        O576   1.277       .  A
C575        C670   1.456       .  S
O577        C593   1.258       .  A
O577       Zn583   1.888       .  S
C578        O594   1.258       .  A
C578        O591   1.271       .  A
O579        C592   1.263       .  A
O579       Cd586   2.090       .  S
O580        C598   1.277       .  A
O580       Cd589   2.071       .  S
O581        C595   1.282       .  A
O581       Cd585   2.087       .  S
O582        C593   1.271       .  A
O582       Cd585   2.140       .  S
Zn583       O596   1.893       .  S
Zn583       O588   1.810       .  S
O584        C595   1.282       .  A
O584       Cd589   2.088       .  S
Cd585       O587   2.068       .  S
Cd585       O588   2.024       .  S
Cd586       O590   2.059       .  S
Cd586       O599   2.063       .  S
Cd586       O588   2.028       .  S
O587        C597   1.277       .  A
O588       Cd589   2.025       .  S
O590        C597   1.277       .  A
C592        O596   1.259       .  A
C597        C672   1.456       .  S
C598        O599   1.277       .  A
C598        C654   1.459       .  S
C600        C642   1.505       .  S
C600        C601   1.421   1_556  A
C600        C605   1.419       .  A
C601        C602   1.411       .  A
C601        H606   1.083       .  S
C602        C603   1.395       .  A
C603        C604   1.385   1_554  A
C603        H607   1.086       .  S
C604        C605   1.409       .  A
C605        H608   1.084       .  S
C609        C628   1.505       .  S
C609        C610   1.419       .  A
C609        C614   1.421   1_556  A
C610        C611   1.409       .  A
C610        H615   1.084       .  S
C611        C612   1.385   1_556  A
C612        C613   1.395       .  A
C612        H616   1.086       .  S
C613        C614   1.411       .  A
C614        H617   1.083       .  S
C618        C643   1.505       .  S
C618        C619   1.420       .  A
C618        C623   1.420   1_556  A
C619        C620   1.411       .  A
C619        H624   1.084       .  S
C620        C621   1.385   1_556  A
C621        C622   1.396       .  A
C621        H625   1.086       .  S
C622        C623   1.410       .  A
C623        H626   1.083       .  S
O627        C643   1.281       .  A
O627       Zn633   2.073       .  S
C628        O644   1.281       .  A
C628        O641   1.281       .  A
O629        C642   1.281       .  A
O629       Cd636   2.108       .  S
O630        C648   1.282       .  A
O630       Cd639   2.115       .  S
O631        C645   1.281       .  A
O631       Cd635   2.110       .  S
O632        C643   1.281       .  A
O632       Cd635   2.105       .  S
Zn633       O644   2.069       .  S
Zn633       O646   2.069       .  S
Zn633       O638   1.992       .  S
O634        C645   1.282       .  A
O634       Cd639   2.117       .  S
Cd635       O637   2.110       .  S
Cd635       O638   2.029       .  S
Cd636       O640   2.117       .  S
Cd636       O649   2.115       .  S
Cd636       O638   2.029       .  S
O637        C647   1.281       .  A
O638       Cd639   2.029       .  S
Cd639       O641   2.108       .  S
O640        C647   1.282       .  A
C642        O646   1.281       .  A
C645        C659   1.507       .  S
C647        C650   1.507       .  S
C648        O649   1.282       .  A
C648        C668   1.507       .  S
C650        C651   1.416       .  A
C650        C655   1.418       .  A
C651        H656   1.084       .  S
C652        C653   1.383       .  A
C653        C654   1.383       .  A
C653        H657   1.086       .  S
C655        H658   1.083       .  S
C659        C660   1.416       .  A
C659        C664   1.418       .  A
C660       C1337   1.411       .  A
C660        H665   1.084       .  S
C661       C1336   1.411   1_455  A
C661        C662   1.383       .  A
C662        C663   1.383       .  A
C662        H666   1.086       .  S
C663       C1340   1.413   1_455  A
C664       C1339   1.413       .  A
C664        H667   1.083       .  S
C668        C669   1.417       .  A
C668        C673   1.417       .  A
C669        C670   1.413       .  A
C669        H674   1.083       .  S
C670        C671   1.382       .  A
C671        C672   1.382       .  A
C671        H675   1.086       .  S
C672        C673   1.413       .  A
C673        H676   1.083       .  S
O677        C693   1.281       .  A
O677       Zn683   2.074       .  S
C678        O694   1.281       .  A
C678        O691   1.281       .  A
C678        C837   1.505       .  S
O679        C692   1.281       .  A
O679       Cd686   2.108       .  S
O680        C698   1.282       .  A
O680       Cd689   2.116       .  S
O681        C695   1.281       .  A
O681       Cd685   2.111       .  S
O682        C693   1.281       .  A
O682       Cd685   2.105       .  S
Zn683       O694   2.070       .  S
Zn683       O696   2.070       .  S
Zn683       O688   1.993       .  S
O684        C695   1.282       .  A
O684       Cd689   2.117       .  S
Cd685       O687   2.111       .  S
Cd685       O688   2.030       .  S
Cd686       O690   2.117       .  S
Cd686       O699   2.116       .  S
Cd686       O688   2.029       .  S
O687        C697   1.281       .  A
O688       Cd689   2.029       .  S
Cd689       O691   2.108       .  S
O690        C697   1.282       .  A
C692        O696   1.281       .  A
C692        C727   1.505       .  S
C693        C736   1.506       .  S
C695        C718   1.507       .  S
C697        C709   1.507       .  S
C698        O699   1.282       .  A
C698        C700   1.508       .  S
C700        C701   1.418       .  A
C700        C705   1.418       .  A
C701        C702   1.413       .  A
C701        H706   1.083       .  S
C702        C811   1.456       .  S
C702        C703   1.382       .  A
C703        C704   1.382       .  A
C703        H707   1.086       .  S
C704        C789   1.456       .  S
C704        C705   1.413       .  A
C705        H708   1.083       .  S
C709        C710   1.416       .  A
C709        C714   1.418       .  A
C710       C1049   1.412       .  A
C710        H715   1.084       .  S
C711        C763   1.456       .  S
C711       C1048   1.412   1_545  A
C711        C712   1.383       .  A
C712        C713   1.383       .  A
C712        H716   1.086       .  S
C713        C812   1.459       .  S
C713       C1052   1.413   1_545  A
C714       C1051   1.413       .  A
C714        H717   1.083       .  S
C718        C719   1.416       .  A
C718        C723   1.418       .  A
C719        H724   1.084       .  S
C720        C765   1.456       .  S
C720        C721   1.383       .  A
C721        C722   1.383       .  A
C721        H725   1.086       .  S
C722        C788   1.459       .  S
C723        H726   1.083       .  S
C727        C728   1.419       .  A
C727        C732   1.421       .  A
C728        C729   1.409       .  A
C728        H733   1.084       .  S
C729        C834   1.472       .  S
C729        C730   1.385       .  A
C730        C731   1.395       .  A
C730        H734   1.086       .  S
C731        C933   1.468       .  S
C731        C732   1.411       .  A
C732        H735   1.083       .  S
C736        C737   1.420       .  A
C736        C741   1.420       .  A
C737        C738   1.411       .  A
C737        H742   1.084       .  S
C738        C835   1.475       .  S
C738        C739   1.386       .  A
C739        C740   1.396       .  A
C739        H743   1.086       .  S
C740        C890   1.467       .  S
C740        C741   1.410       .  A
C741        H744   1.083       .  S
O745        C761   1.259       .  A
O745       Zn751   1.893       .  S
C746        O762   1.258       .  A
C746        O759   1.271       .  A
C746        C769   1.471       .  S
O747        C760   1.271       .  A
O748        C766   1.281       .  A
O748       Cd757   2.085       .  S
O749        C763   1.276       .  A
O749       Cd753   2.056       .  S
O750        C761   1.263       .  A
O750       Cd753   2.096       .  S
Zn751      O1100   1.888   1_545  S
Zn751       O756   1.810       .  S
O752        C763   1.278       .  A
O752       Cd757   2.072       .  S
Cd753       O755   2.056       .  S
Cd753       O756   2.029       .  S
Cd754       O758   2.072       .  S
Cd754       O767   2.085       .  S
Cd754       O756   2.025       .  S
O755        C765   1.276       .  A
O756       Cd757   2.025       .  S
Cd757      O1097   2.141   1_545  S
O758        C765   1.278       .  A
O759      Cd1095   2.141       .  S
C760        O764   1.258       .  A
C760        C807   1.471       .  S
C761        C830   1.456       .  S
O762      Zn1089   1.888       .  S
C766        O767   1.281       .  A
C766        C960   1.467       .  S
O768        C784   1.258       .  A
C769        O785   1.258       .  A
C769        O782   1.271       .  A
O770        C783   1.263       .  A
O770       Cd777   2.089       .  S
O771        C789   1.277       .  A
O771       Cd780   2.069       .  S
O772        C786   1.282       .  A
O772       Cd776   2.087       .  S
O773        C784   1.271       .  A
Zn774       O785   1.889       .  S
Zn774       O787   1.893       .  S
Zn774       O779   1.810       .  S
O775        C786   1.282       .  A
O775       Cd780   2.087       .  S
Cd776       O778   2.072       .  S
Cd776       O779   2.025       .  S
Cd777       O781   2.064       .  S
Cd777       O790   2.059       .  S
Cd777       O779   2.028       .  S
O778        C788   1.277       .  A
O779       Cd780   2.024       .  S
Cd780       O782   2.141       .  S
O781        C788   1.277       .  A
C783        O787   1.259       .  A
C783        C829   1.453       .  S
C784        C792   1.471       .  S
C786        C951   1.467       .  S
C789        O790   1.277       .  A
O791        C807   1.258       .  A
O791       Zn797   1.889       .  S
C792        O808   1.258       .  A
C792        O805   1.271       .  A
O793        C806   1.263       .  A
O793       Cd800   2.089       .  S
O794        C812   1.277       .  A
O794       Cd803   2.072       .  S
O795        C809   1.282       .  A
O795       Cd799   2.087       .  S
O796        C807   1.271       .  A
O796       Cd799   2.141       .  S
Zn797      O1146   1.884   1_545  S
Zn797       O810   1.893       .  S
Zn797       O802   1.810       .  S
O798        C809   1.282       .  A
O798       Cd803   2.087       .  S
Cd799       O801   2.069       .  S
Cd799       O802   2.024       .  S
Cd800       O804   2.059       .  S
Cd800       O813   2.063       .  S
Cd800       O802   2.028       .  S
O801        C811   1.277       .  A
O802       Cd803   2.025       .  S
Cd803      O1143   2.141   1_545  S
O804        C811   1.277       .  A
O805      Cd1141   2.141       .  S
C806        O810   1.259       .  A
C806        C815   1.453       .  S
O808      Zn1135   1.884       .  S
C809        C940   1.467       .  S
C812        O813   1.277       .  A
O814        C830   1.252       .  A
C815        O831   1.252       .  A
C815        O828   1.267       .  A
O816        C829   1.267       .  A
O816       Cd823   2.110       .  S
O817        C835   1.281       .  A
O817      Cd1164   2.091       .  S
O818        C832   1.281       .  A
O819        C830   1.267       .  A
O819       Cd822   2.119       .  S
Zn820      O1169   1.855       .  S
Zn820       O825   1.810       .  S
O821        C832   1.281       .  A
O821       Cd826   2.089       .  S
Cd822      O1162   2.088   1_545  S
Cd823       O827   2.089       .  S
O824        C834   1.281       .  A
O824      Cd1160   2.088       .  S
O825      Cd1164   2.027       .  S
Cd826      O1155   2.091   1_545  S
Cd826       O828   2.110       .  S
Cd826      O1163   2.027   1_545  S
O827        C834   1.281       .  A
C829        O833   1.252       .  A
O831      Zn1158   1.855   1_545  S
C832        C839   1.472       .  S
C835        O836   1.281       .  A
C837        C838   1.419       .  A
C837        C842   1.421       .  A
C838        C839   1.409       .  A
C838        H843   1.084       .  S
C839        C840   1.385       .  A
C840        C841   1.395       .  A
C840        H844   1.086       .  S
C841        C910   1.468       .  S
C841        C842   1.411       .  A
C842        H845   1.083       .  S
O846        C862   1.252       .  A
O846       Zn852   1.855       .  S
C847        O863   1.252       .  A
C847        O860   1.267       .  A
C847        C930   1.453       .  S
O848        C861   1.267       .  A
O848       Cd855   2.110       .  S
O849        C867   1.281       .  A
O849      Cd1196   2.091   1_545  S
O850        C864   1.281       .  A
O851        C862   1.267       .  A
O851       Cd854   2.119       .  S
Zn852      O1203   1.856       .  S
Zn852       O857   1.810       .  S
O853        C864   1.281       .  A
O853       Cd858   2.088       .  S
Cd854      O1194   2.087       .  S
Cd854       O857   2.029       .  S
Cd855       O859   2.088       .  S
Cd855      O1195   2.027   1_545  S
O856        C866   1.281       .  A
O856      Cd1192   2.087   1_545  S
O857      Cd1193   2.027       .  S
Cd858      O1187   2.091       .  S
Cd858       O860   2.110       .  S
O859        C866   1.281       .  A
C861        O865   1.252       .  A
C861        C907   1.453       .  S
C862        C885   1.456       .  S
C864        C949   1.471       .  S
O865      Zn1190   1.856   1_545  S
C866        C942   1.471       .  S
C867        O868   1.281       .  A
C867        C958   1.474       .  S
O869        C885   1.259       .  A
O869       Zn875   1.893       .  S
C870        O886   1.258       .  A
C870        O883   1.271       .  A
C870        C893   1.471       .  S
O871        C884   1.271       .  A
O872        C890   1.281       .  A
O872       Cd881   2.086       .  S
O873        C887   1.276       .  A
O873       Cd877   2.056       .  S
O874        C885   1.263       .  A
O874       Cd877   2.097       .  S
Zn875      O1224   1.887       .  S
Zn875       O880   1.810       .  S
O876        C887   1.278       .  A
O876       Cd881   2.071       .  S
Cd877       O879   2.056       .  S
Cd877       O880   2.029       .  S
Cd878       O882   2.071       .  S
Cd878       O891   2.086       .  S
Cd878       O880   2.025       .  S
O879        C889   1.276       .  A
O880       Cd881   2.025       .  S
Cd881      O1221   2.140       .  S
O882        C889   1.278       .  A
O883      Cd1219   2.140   1_545  S
C884        O888   1.258       .  A
C884        C931   1.471       .  S
O886      Zn1213   1.887   1_545  S
C887        C990   1.456       .  S
C889        C999   1.456       .  S
C890        O891   1.281       .  A
O892        C908   1.258       .  A
C893        O909   1.258       .  A
C893        O906   1.271       .  A
O894        C907   1.263       .  A
O894       Cd901   2.089       .  S
O895        C913   1.277       .  A
O895       Cd904   2.068       .  S
O896        C910   1.282       .  A
O896       Cd900   2.088       .  S
O897        C908   1.271       .  A
Zn898       O909   1.888       .  S
Zn898       O911   1.893       .  S
Zn898       O903   1.810       .  S
O899        C910   1.282       .  A
O899       Cd904   2.087       .  S
Cd900       O902   2.071       .  S
Cd900       O903   2.025       .  S
Cd901       O905   2.063       .  S
Cd901       O914   2.059       .  S
Cd901       O903   2.028       .  S
O902        C912   1.277       .  A
O903       Cd904   2.024       .  S
Cd904       O906   2.140       .  S
O905        C912   1.277       .  A
C907        O911   1.259       .  A
C908        C916   1.470       .  S
C912       C1001   1.459       .  S
C913        O914   1.277       .  A
C913       C1008   1.456       .  S
O915        C931   1.258       .  A
O915       Zn921   1.888       .  S
C916        O932   1.258       .  A
C916        O929   1.271       .  A
O917        C930   1.263       .  A
O917       Cd924   2.090       .  S
O918        C936   1.277       .  A
O918       Cd927   2.071       .  S
O919        C933   1.282       .  A
O919       Cd923   2.087       .  S
O920        C931   1.271       .  A
O920       Cd923   2.140       .  S
Zn921      O1270   1.883       .  S
Zn921       O934   1.893       .  S
Zn921       O926   1.810       .  S
O922        C933   1.282       .  A
O922       Cd927   2.088       .  S
Cd923       O925   2.068       .  S
Cd923       O926   2.024       .  S
Cd924       O928   2.059       .  S
Cd924       O937   2.063       .  S
Cd924       O926   2.028       .  S
O925        C935   1.277       .  A
O926       Cd927   2.025       .  S
Cd927      O1267   2.140       .  S
O928        C935   1.277       .  A
O929      Cd1265   2.140   1_545  S
C930        O934   1.259       .  A
O932      Zn1259   1.883   1_545  S
C935       C1010   1.456       .  S
C936        O937   1.277       .  A
C936        C992   1.459       .  S
C938        C980   1.505       .  S
C938        C939   1.421   1_556  A
C938        C943   1.419       .  A
C939        C940   1.411       .  A
C939        H944   1.083       .  S
C940        C941   1.395       .  A
C941        C942   1.385   1_554  A
C941        H945   1.086       .  S
C942        C943   1.409       .  A
C943        H946   1.084       .  S
C947        C966   1.505       .  S
C947        C948   1.419       .  A
C947        C952   1.421   1_556  A
C948        C949   1.409       .  A
C948        H953   1.084       .  S
C949        C950   1.385   1_556  A
C950        C951   1.395       .  A
C950        H954   1.086       .  S
C951        C952   1.411       .  A
C952        H955   1.083       .  S
C956        C981   1.505       .  S
C956        C957   1.420       .  A
C956        C961   1.420   1_556  A
C957        C958   1.411       .  A
C957        H962   1.084       .  S
C958        C959   1.385   1_556  A
C959        C960   1.396       .  A
C959        H963   1.086       .  S
C960        C961   1.410       .  A
C961        H964   1.083       .  S
O965        C981   1.281       .  A
O965       Zn971   2.073       .  S
C966        O982   1.281       .  A
C966        O979   1.281       .  A
O967        C980   1.281       .  A
O967       Cd974   2.108       .  S
O968        C986   1.282       .  A
O968       Cd977   2.115       .  S
O969        C983   1.281       .  A
O969       Cd973   2.110       .  S
O970        C981   1.281       .  A
O970       Cd973   2.105       .  S
Zn971       O982   2.069       .  S
Zn971       O984   2.069       .  S
Zn971       O976   1.992       .  S
O972        C983   1.282       .  A
O972       Cd977   2.117       .  S
Cd973       O975   2.110       .  S
Cd973       O976   2.029       .  S
Cd974       O978   2.117       .  S
Cd974       O987   2.115       .  S
Cd974       O976   2.029       .  S
O975        C985   1.281       .  A
O976       Cd977   2.029       .  S
Cd977       O979   2.108       .  S
O978        C985   1.282       .  A
C980        O984   1.281       .  A
C983        C997   1.507       .  S
C985        C988   1.507       .  S
C986        O987   1.282       .  A
C986       C1006   1.507       .  S
C988        C989   1.416       .  A
C988        C993   1.418       .  A
C989       C1328   1.411   1_545  A
C989        H994   1.084       .  S
C990       C1327   1.411       .  A
C990        C991   1.383       .  A
C991        C992   1.383       .  A
C991        H995   1.086       .  S
C992       C1331   1.413       .  A
C993       C1330   1.413   1_545  A
C993        H996   1.083       .  S
C997        C998   1.416       .  A
C997       C1002   1.418       .  A
C998       H1003   1.084       .  S
C999       C1000   1.383       .  A
C1000      C1001   1.383       .  A
C1000      H1004   1.086       .  S
C1002      H1005   1.083       .  S
C1006      C1007   1.417       .  A
C1006      C1011   1.417       .  A
C1007      C1008   1.413       .  A
C1007      H1012   1.083       .  S
C1008      C1009   1.382       .  A
C1009      C1010   1.382       .  A
C1009      H1013   1.086       .  S
C1010      C1011   1.413       .  A
C1011      H1014   1.083       .  S
O1015      C1031   1.281       .  A
O1015     Zn1021   2.074       .  S
C1016      O1032   1.281       .  A
C1016      O1029   1.281       .  A
C1016      C1175   1.505       .  S
O1017      C1030   1.281       .  A
O1017     Cd1024   2.108       .  S
O1018      C1036   1.282       .  A
O1018     Cd1027   2.116       .  S
O1019      C1033   1.281       .  A
O1019     Cd1023   2.111       .  S
O1020      C1031   1.281       .  A
O1020     Cd1023   2.105       .  S
Zn1021     O1032   2.070       .  S
Zn1021     O1034   2.070       .  S
Zn1021     O1026   1.993       .  S
O1022      C1033   1.282       .  A
O1022     Cd1027   2.117       .  S
Cd1023     O1025   2.111       .  S
Cd1023     O1026   2.030       .  S
Cd1024     O1028   2.117       .  S
Cd1024     O1037   2.116       .  S
Cd1024     O1026   2.029       .  S
O1025      C1035   1.281       .  A
O1026     Cd1027   2.029       .  S
Cd1027     O1029   2.108       .  S
O1028      C1035   1.282       .  A
C1030      O1034   1.281       .  A
C1030      C1065   1.505       .  S
C1031      C1074   1.506       .  S
C1033      C1056   1.507       .  S
C1035      C1047   1.507       .  S
C1036      O1037   1.282       .  A
C1036      C1038   1.508       .  S
C1038      C1039   1.418       .  A
C1038      C1043   1.418       .  A
C1039      C1040   1.413       .  A
C1039      H1044   1.083       .  S
C1040      C1149   1.456       .  S
C1040      C1041   1.382       .  A
C1041      C1042   1.382       .  A
C1041      H1045   1.086       .  S
C1042      C1127   1.456       .  S
C1042      C1043   1.413       .  A
C1043      H1046   1.083       .  S
C1047      C1048   1.416       .  A
C1047      C1052   1.418       .  A
C1048      H1053   1.084       .  S
C1049      C1101   1.456       .  S
C1049      C1050   1.383       .  A
C1050      C1051   1.383       .  A
C1050      H1054   1.086       .  S
C1051      C1150   1.459       .  S
C1052      H1055   1.083       .  S
C1056      C1057   1.416       .  A
C1056      C1061   1.418       .  A
C1057      H1062   1.084       .  S
C1058      C1103   1.456       .  S
C1058      C1059   1.383       .  A
C1059      C1060   1.383       .  A
C1059      H1063   1.086       .  S
C1060      C1126   1.459       .  S
C1061      H1064   1.083       .  S
C1065      C1066   1.419       .  A
C1065      C1070   1.421       .  A
C1066      C1067   1.409       .  A
C1066      H1071   1.084       .  S
C1067      C1172   1.472       .  S
C1067      C1068   1.385       .  A
C1068      C1069   1.395       .  A
C1068      H1072   1.086       .  S
C1069      C1271   1.468       .  S
C1069      C1070   1.411       .  A
C1070      H1073   1.083       .  S
C1074      C1075   1.420       .  A
C1074      C1079   1.420       .  A
C1075      C1076   1.411       .  A
C1075      H1080   1.084       .  S
C1076      C1173   1.475       .  S
C1076      C1077   1.386       .  A
C1077      C1078   1.396       .  A
C1077      H1081   1.086       .  S
C1078      C1228   1.467       .  S
C1078      C1079   1.410       .  A
C1079      H1082   1.083       .  S
O1083      C1099   1.259       .  A
O1083     Zn1089   1.893       .  S
C1084      O1100   1.258       .  A
C1084      O1097   1.271       .  A
C1084      C1107   1.471       .  S
O1085      C1098   1.271       .  A
O1086      C1104   1.281       .  A
O1086     Cd1095   2.085       .  S
O1087      C1101   1.276       .  A
O1087     Cd1091   2.056       .  S
O1088      C1099   1.263       .  A
O1088     Cd1091   2.096       .  S
Zn1089     O1094   1.810       .  S
O1090      C1101   1.278       .  A
O1090     Cd1095   2.072       .  S
Cd1091     O1093   2.056       .  S
Cd1091     O1094   2.029       .  S
Cd1092     O1096   2.072       .  S
Cd1092     O1105   2.085       .  S
Cd1092     O1094   2.025       .  S
O1093      C1103   1.276       .  A
O1094     Cd1095   2.025       .  S
O1096      C1103   1.278       .  A
C1098      O1102   1.258       .  A
C1098      C1145   1.471       .  S
C1099      C1168   1.456       .  S
C1104      O1105   1.281       .  A
C1104      C1298   1.467       .  S
O1106      C1122   1.258       .  A
C1107      O1123   1.258       .  A
C1107      O1120   1.271       .  A
O1108      C1121   1.263       .  A
O1108     Cd1115   2.089       .  S
O1109      C1127   1.277       .  A
O1109     Cd1118   2.069       .  S
O1110      C1124   1.282       .  A
O1110     Cd1114   2.087       .  S
O1111      C1122   1.271       .  A
Zn1112     O1123   1.889       .  S
Zn1112     O1125   1.893       .  S
Zn1112     O1117   1.810       .  S
O1113      C1124   1.282       .  A
O1113     Cd1118   2.087       .  S
Cd1114     O1116   2.072       .  S
Cd1114     O1117   2.025       .  S
Cd1115     O1119   2.064       .  S
Cd1115     O1128   2.059       .  S
Cd1115     O1117   2.028       .  S
O1116      C1126   1.277       .  A
O1117     Cd1118   2.024       .  S
Cd1118     O1120   2.141       .  S
O1119      C1126   1.277       .  A
C1121      O1125   1.259       .  A
C1121      C1167   1.453       .  S
C1122      C1130   1.471       .  S
C1124      C1289   1.467       .  S
C1127      O1128   1.277       .  A
O1129      C1145   1.258       .  A
O1129     Zn1135   1.889       .  S
C1130      O1146   1.258       .  A
C1130      O1143   1.271       .  A
O1131      C1144   1.263       .  A
O1131     Cd1138   2.089       .  S
O1132      C1150   1.277       .  A
O1132     Cd1141   2.072       .  S
O1133      C1147   1.282       .  A
O1133     Cd1137   2.087       .  S
O1134      C1145   1.271       .  A
O1134     Cd1137   2.141       .  S
Zn1135     O1148   1.893       .  S
Zn1135     O1140   1.810       .  S
O1136      C1147   1.282       .  A
O1136     Cd1141   2.087       .  S
Cd1137     O1139   2.069       .  S
Cd1137     O1140   2.024       .  S
Cd1138     O1142   2.059       .  S
Cd1138     O1151   2.063       .  S
Cd1138     O1140   2.028       .  S
O1139      C1149   1.277       .  A
O1140     Cd1141   2.025       .  S
O1142      C1149   1.277       .  A
C1144      O1148   1.259       .  A
C1144      C1153   1.453       .  S
C1147      C1278   1.467       .  S
C1150      O1151   1.277       .  A
O1152      C1168   1.252       .  A
C1153      O1169   1.252       .  A
C1153      O1166   1.267       .  A
O1154      C1167   1.267       .  A
O1154     Cd1161   2.110       .  S
O1155      C1173   1.281       .  A
O1156      C1170   1.281       .  A
O1157      C1168   1.267       .  A
O1157     Cd1160   2.119       .  S
Zn1158     O1163   1.810       .  S
O1159      C1170   1.281       .  A
O1159     Cd1164   2.089       .  S
Cd1161     O1165   2.089       .  S
O1162      C1172   1.281       .  A
Cd1164     O1166   2.110       .  S
O1165      C1172   1.281       .  A
C1167      O1171   1.252       .  A
C1170      C1177   1.472       .  S
C1173      O1174   1.281       .  A
C1175      C1176   1.419       .  A
C1175      C1180   1.421       .  A
C1176      C1177   1.409       .  A
C1176      H1181   1.084       .  S
C1177      C1178   1.385       .  A
C1178      C1179   1.395       .  A
C1178      H1182   1.086       .  S
C1179      C1248   1.468       .  S
C1179      C1180   1.411       .  A
C1180      H1183   1.083       .  S
O1184      C1200   1.252       .  A
O1184     Zn1190   1.855       .  S
C1185      O1201   1.252       .  A
C1185      O1198   1.267       .  A
C1185      C1268   1.453       .  S
O1186      C1199   1.267       .  A
O1186     Cd1193   2.110       .  S
O1187      C1205   1.281       .  A
O1188      C1202   1.281       .  A
O1189      C1200   1.267       .  A
O1189     Cd1192   2.119       .  S
Zn1190     O1195   1.810       .  S
O1191      C1202   1.281       .  A
O1191     Cd1196   2.088       .  S
Cd1192     O1195   2.029       .  S
Cd1193     O1197   2.088       .  S
O1194      C1204   1.281       .  A
Cd1196     O1198   2.110       .  S
O1197      C1204   1.281       .  A
C1199      O1203   1.252       .  A
C1199      C1245   1.453       .  S
C1200      C1223   1.456       .  S
C1202      C1287   1.471       .  S
C1204      C1280   1.471       .  S
C1205      O1206   1.281       .  A
C1205      C1296   1.474       .  S
O1207      C1223   1.259       .  A
O1207     Zn1213   1.893       .  S
C1208      O1224   1.258       .  A
C1208      O1221   1.271       .  A
C1208      C1231   1.471       .  S
O1209      C1222   1.271       .  A
O1210      C1228   1.281       .  A
O1210     Cd1219   2.086       .  S
O1211      C1225   1.276       .  A
O1211     Cd1215   2.056       .  S
O1212      C1223   1.263       .  A
O1212     Cd1215   2.097       .  S
Zn1213     O1218   1.810       .  S
O1214      C1225   1.278       .  A
O1214     Cd1219   2.071       .  S
Cd1215     O1217   2.056       .  S
Cd1215     O1218   2.029       .  S
Cd1216     O1220   2.071       .  S
Cd1216     O1229   2.086       .  S
Cd1216     O1218   2.025       .  S
O1217      C1227   1.276       .  A
O1218     Cd1219   2.025       .  S
O1220      C1227   1.278       .  A
C1222      O1226   1.258       .  A
C1222      C1269   1.471       .  S
C1225      C1328   1.456       .  S
C1227      C1337   1.456       .  S
C1228      O1229   1.281       .  A
O1230      C1246   1.258       .  A
C1231      O1247   1.258       .  A
C1231      O1244   1.271       .  A
O1232      C1245   1.263       .  A
O1232     Cd1239   2.089       .  S
O1233      C1251   1.277       .  A
O1233     Cd1242   2.068       .  S
O1234      C1248   1.282       .  A
O1234     Cd1238   2.088       .  S
O1235      C1246   1.271       .  A
Zn1236     O1247   1.888       .  S
Zn1236     O1249   1.893       .  S
Zn1236     O1241   1.810       .  S
O1237      C1248   1.282       .  A
O1237     Cd1242   2.087       .  S
Cd1238     O1240   2.071       .  S
Cd1238     O1241   2.025       .  S
Cd1239     O1243   2.063       .  S
Cd1239     O1252   2.059       .  S
Cd1239     O1241   2.028       .  S
O1240      C1250   1.277       .  A
O1241     Cd1242   2.024       .  S
Cd1242     O1244   2.140       .  S
O1243      C1250   1.277       .  A
C1245      O1249   1.259       .  A
C1246      C1254   1.470       .  S
C1250      C1339   1.459       .  S
C1251      O1252   1.277       .  A
C1251      C1346   1.456       .  S
O1253      C1269   1.258       .  A
O1253     Zn1259   1.888       .  S
C1254      O1270   1.258       .  A
C1254      O1267   1.271       .  A
O1255      C1268   1.263       .  A
O1255     Cd1262   2.090       .  S
O1256      C1274   1.277       .  A
O1256     Cd1265   2.071       .  S
O1257      C1271   1.282       .  A
O1257     Cd1261   2.087       .  S
O1258      C1269   1.271       .  A
O1258     Cd1261   2.140       .  S
Zn1259     O1272   1.893       .  S
Zn1259     O1264   1.810       .  S
O1260      C1271   1.282       .  A
O1260     Cd1265   2.088       .  S
Cd1261     O1263   2.068       .  S
Cd1261     O1264   2.024       .  S
Cd1262     O1266   2.059       .  S
Cd1262     O1275   2.063       .  S
Cd1262     O1264   2.028       .  S
O1263      C1273   1.277       .  A
O1264     Cd1265   2.025       .  S
O1266      C1273   1.277       .  A
C1268      O1272   1.259       .  A
C1273      C1348   1.456       .  S
C1274      O1275   1.277       .  A
C1274      C1330   1.459       .  S
C1276      C1318   1.505       .  S
C1276      C1277   1.421   1_556  A
C1276      C1281   1.419       .  A
C1277      C1278   1.411       .  A
C1277      H1282   1.083       .  S
C1278      C1279   1.395       .  A
C1279      C1280   1.385   1_554  A
C1279      H1283   1.086       .  S
C1280      C1281   1.409       .  A
C1281      H1284   1.084       .  S
C1285      C1304   1.505       .  S
C1285      C1286   1.419       .  A
C1285      C1290   1.421   1_556  A
C1286      C1287   1.409       .  A
C1286      H1291   1.084       .  S
C1287      C1288   1.385   1_556  A
C1288      C1289   1.395       .  A
C1288      H1292   1.086       .  S
C1289      C1290   1.411       .  A
C1290      H1293   1.083       .  S
C1294      C1319   1.505       .  S
C1294      C1295   1.420       .  A
C1294      C1299   1.420   1_556  A
C1295      C1296   1.411       .  A
C1295      H1300   1.084       .  S
C1296      C1297   1.385   1_556  A
C1297      C1298   1.396       .  A
C1297      H1301   1.086       .  S
C1298      C1299   1.410       .  A
C1299      H1302   1.083       .  S
O1303      C1319   1.281       .  A
O1303     Zn1309   2.073       .  S
C1304      O1320   1.281       .  A
C1304      O1317   1.281       .  A
O1305      C1318   1.281       .  A
O1305     Cd1312   2.108       .  S
O1306      C1324   1.282       .  A
O1306     Cd1315   2.115       .  S
O1307      C1321   1.281       .  A
O1307     Cd1311   2.110       .  S
O1308      C1319   1.281       .  A
O1308     Cd1311   2.105       .  S
Zn1309     O1320   2.069       .  S
Zn1309     O1322   2.069       .  S
Zn1309     O1314   1.992       .  S
O1310      C1321   1.282       .  A
O1310     Cd1315   2.117       .  S
Cd1311     O1313   2.110       .  S
Cd1311     O1314   2.029       .  S
Cd1312     O1316   2.117       .  S
Cd1312     O1325   2.115       .  S
Cd1312     O1314   2.029       .  S
O1313      C1323   1.281       .  A
O1314     Cd1315   2.029       .  S
Cd1315     O1317   2.108       .  S
O1316      C1323   1.282       .  A
C1318      O1322   1.281       .  A
C1321      C1335   1.507       .  S
C1323      C1326   1.507       .  S
C1324      O1325   1.282       .  A
C1324      C1344   1.507       .  S
C1326      C1327   1.416       .  A
C1326      C1331   1.418       .  A
C1327      H1332   1.084       .  S
C1328      C1329   1.383       .  A
C1329      C1330   1.383       .  A
C1329      H1333   1.086       .  S
C1331      H1334   1.083       .  S
C1335      C1336   1.416       .  A
C1335      C1340   1.418       .  A
C1336      H1341   1.084       .  S
C1337      C1338   1.383       .  A
C1338      C1339   1.383       .  A
C1338      H1342   1.086       .  S
C1340      H1343   1.083       .  S
C1344      C1345   1.417       .  A
C1344      C1349   1.417       .  A
C1345      C1346   1.413       .  A
C1345      H1350   1.083       .  S
C1346      C1347   1.382       .  A
C1347      C1348   1.382       .  A
C1347      H1351   1.086       .  S
C1348      C1349   1.413       .  A
C1349      H1352   1.083       .  S
