geometry optimzed in LAMMPS
_audit_creation_date              2020-11-30 
_audit_creation_method            'lammps2cif' 
_symmetry_space_group_name_H-M    'P1' 
_symmetry_Int_Tables_number       1 
_symmetry_cell_setting            triclinic 
loop_ 
_symmetry_equiv_pos_as_xyz 
  x,y,z 
_cell_length_a                    29.755149002639794 
_cell_length_b                    29.607701986181024 
_cell_length_c                    46.373675367562434 
_cell_angle_alpha                 89.10952008468746 
_cell_angle_beta                  90.28088159045214 
_cell_angle_gamma                 85.17460299046886 
loop_ 
_atom_site_label 
_atom_site_type_symbol 
_atom_site_fract_x 
_atom_site_fract_y 
_atom_site_fract_z 
_atom_site_charge 
O1          O  0.33818285  0.04027385  0.19218276    -0.74210
O2          O  0.27379777  0.06473497  0.21169362    -0.53120
C3          C  0.31701018  0.05705050  0.21351767     0.79520
O4          O  0.28601447  0.25625267  0.14150948    -0.58810
O5          O  0.32732466  0.24411808  0.10084794    -0.51840
C6          C  0.31066179  0.26974988  0.12103341     0.71530
O7          O  0.20251894  0.17736353  0.20275531    -0.73370
O8          O  0.19244194  0.10169966  0.20550143    -0.53940
C9          C  0.18525404  0.14249590  0.21372101     0.77530
O10         O  0.41610234  0.11597794  0.12495292    -0.58520
O11         O  0.39365408  0.16929808  0.09064365    -0.51640
C12         C  0.42386893  0.14449271  0.10474556     0.74120
Zr13       Zr  0.35480386  0.09351552  0.15508536     2.54710
O14         O  0.39440269  0.13595910  0.19030006    -0.79080
O15         O  0.41804519  0.03642251  0.16152837    -0.92500
Zr16       Zr  0.25416999  0.19151138  0.16286001     2.64680
O17         O  0.29352935  0.21822548  0.20459745    -0.97450
O18         O  0.19916670  0.25708357  0.16504458    -0.79520
O19         O  0.28488270  0.11938095  0.17699863    -0.82870
O20         O  0.32583070  0.16767337  0.14237004    -2.17580
O21         O  0.34174095  0.07108643  0.06030563    -0.66260
O22         O  0.32320633  0.13937051  0.04209977    -0.50830
C23         C  0.33010633  0.09644905  0.03866196     0.72510
O24         O  0.14317884  0.08184946  0.11308902    -0.59170
O25         O  0.14639572  0.07650154  0.16089470    -0.51150
C26         C  0.12364017  0.08460509  0.13739165     0.74310
O27         O  0.20353756  0.18413704  0.05292636    -0.70570
O28         O  0.25034485  0.21813169  0.07921645    -0.49240
C29         C  0.23374056  0.21213435  0.05476077     0.75690
O30         O  0.24862196  0.00308119  0.13019259    -0.65900
O31         O  0.21567534  0.98912356  0.16930038    -0.53090
C32         C  0.23336800  0.97328794  0.14647381     0.74070
Zr33       Zr  0.28821542  0.03935961  0.09250170     2.77540
O34         O  0.25059396  0.99811837  0.05571916    -0.96640
O35         O  0.34522310  0.97563709  0.08827042    -0.77470
Zr36       Zr  0.18979124  0.13951719  0.09683135     2.70070
O37         O  0.14820791  0.11878359  0.05434129    -0.78710
O38         O  0.13028268  0.19830345  0.10759557    -0.97800
Zr39       Zr  0.22969658  0.06827961  0.16561100     2.21500
Zr40       Zr  0.31331214  0.16626909  0.09168645     2.11130
O41         O  0.25986800  0.11372051  0.07726896    -2.46480
O42         O  0.21820600  0.06564780  0.11362848    -0.78510
O43         O  0.34196590  0.09098900  0.10523745    -0.70700
O44         O  0.20035820  0.14215276  0.14783222    -2.31660
O45         O  0.30184912  0.04027929  0.14324629    -2.27870
O46         O  0.24241258  0.19023895  0.11259470    -0.72460
H47         H  0.34798824  0.18853358  0.14696152     0.79540
H48         H  0.17168535  0.15243179  0.15610822     0.80620
H49         H  0.25343171  0.11432878  0.05714642     0.82850
H50         H  0.31556462  0.01090913  0.14970081     0.80460
H51         H  0.16948144  0.24429152  0.16540120     0.43490
H52         H  0.14641417  0.22333261  0.11546334     0.42460
H53         H  0.16083994  0.08761429  0.05006433     0.42140
H54         H  0.22814429  0.02038182  0.04654526     0.40070
H55         H  0.35257877  0.97466148  0.06747490     0.43210
H56         H  0.42563880  0.02614490  0.14179116     0.37990
H57         H  0.37258618  0.16142239  0.19573211     0.44110
H58         H  0.31836928  0.23454657  0.19643973     0.40520
H59         H  0.27385273  0.99062209  0.04101246     0.45440
H60         H  0.44365217  0.05353736  0.16747470     0.44160
H61         H  0.27236161  0.24237757  0.21259172     0.44300
H62         H  0.11928317  0.20978923  0.08844569     0.44660
O63         O  0.36673665  0.57556004  0.18564261    -0.74210
O64         O  0.40777783  0.54894440  0.14677223    -0.53120
C65         C  0.40344443  0.55925263  0.17384799     0.79520
O66         O  0.15273680  0.59311260  0.11469033    -0.58810
O67         O  0.14959734  0.66949770  0.10592508    -0.51840
C68         C  0.13159824  0.63252975  0.11096457     0.71530
O69         O  0.27070072  0.48181118  0.11383108    -0.73370
O70         O  0.34755861  0.48248925  0.11174686    -0.53940
C71         C  0.31122815  0.46237715  0.11367132     0.77530
O72         O  0.23036636  0.65017747  0.19528310    -0.58520
O73         O  0.18398705  0.69082903  0.16282072    -0.51640
C74         C  0.19266891  0.67231244  0.18821979     0.74120
Zr75       Zr  0.29780599  0.61856445  0.17048401     2.54710
O76         O  0.28007813  0.56582388  0.20875385    -0.79080
O77         O  0.32938724  0.67051334  0.20371665    -0.92500
Zr78       Zr  0.22921021  0.55711259  0.11344576     2.64680
O79         O  0.19909675  0.51691972  0.15431444    -0.97450
O80         O  0.18635286  0.51305919  0.08095799    -0.79520
O81         O  0.29819431  0.55544857  0.13958462    -0.82870
O82         O  0.23079430  0.61830773  0.14328384    -2.17580
O83         O  0.31144244  0.76594211  0.11973169    -0.66260
O84         O  0.23674718  0.76123964  0.12943819    -0.50830
C85         C  0.27198058  0.78295572  0.12748868     0.72510
O86         O  0.30802007  0.55640626  0.02657235    -0.59170
O87         O  0.35048378  0.51237238  0.05913615    -0.51150
C88         C  0.32644071  0.51766690  0.03533736     0.74310
O89         O  0.21989557  0.68685960  0.04088722    -0.70570
O90         O  0.21289403  0.74135945  0.07258390    -0.49240
C91         C  0.22265955  0.72870610  0.04659555     0.75690
O92         O  0.42485809  0.65949459  0.09871053    -0.65900
O93         O  0.42926274  0.58354622  0.08964934    -0.53090
C94         C  0.44643973  0.62190654  0.09195977     0.74070
Zr95       Zr  0.34980970  0.69090488  0.10901110     2.77540
O96         O  0.37629670  0.74244519  0.07245122    -0.96640
O97         O  0.39919081  0.71955107  0.14521519    -0.77470
Zr98       Zr  0.28221179  0.62792597  0.04934059     2.70070
O99         O  0.34534254  0.65580928  0.02321591    -0.78710
O100        O  0.24339649  0.60668548  0.00542885    -0.97800
Zr101      Zr  0.35622357  0.56083102  0.10409323     2.21500
Zr102      Zr  0.22413627  0.68693704  0.11496560     2.11130
O103        O  0.28574768  0.68890028  0.08188827    -2.46480
O104        O  0.35062917  0.62900791  0.07563409    -0.78510
O105        O  0.29111731  0.68721087  0.14330642    -0.70700
O106        O  0.28500895  0.56417929  0.08047410    -2.31660
O107        O  0.35577061  0.62406829  0.13612809    -2.27870
O108        O  0.22228402  0.62353920  0.08313002    -0.72460
H109        H  0.20488194  0.61255616  0.15458132     0.79540
H110        H  0.27670632  0.53725849  0.07151208     0.80620
H111        H  0.29008535  0.71704746  0.07226045     0.82850
H112        H  0.38421941  0.62750351  0.14540829     0.80460
H113        H  0.17429919  0.48963550  0.09352101     0.43490
H114        H  0.21728897  0.62915734  0.00209194     0.42460
H115        H  0.35413042  0.63183126  0.00918877     0.42140
H116        H  0.37914082  0.72427614  0.05471505     0.40070
H117        H  0.37866250  0.73045954  0.16082966     0.43210
H118        H  0.36204564  0.66825677  0.19938412     0.37990
H119        H  0.28656986  0.53540760  0.20040701     0.44110
H120        H  0.21161091  0.53077128  0.17155594     0.40520
H121        H  0.35066925  0.76523903  0.06842120     0.45440
H122        H  0.32745231  0.65560140  0.22288043     0.44160
H123        H  0.16648728  0.52665236  0.15455586     0.44300
H124        H  0.26406320  0.61098567  0.98912420     0.44660
O125        O  0.91507462  0.11046312  0.13785902    -0.74210
O126        O  0.91479201  0.18584503  0.12746931    -0.53120
C127        C  0.93486167  0.14678458  0.13460364     0.79520
O128        O  0.74460466  0.09620473  0.04254989    -0.58810
O129        O  0.70888642  0.05302108  0.07487167    -0.51840
C130        C  0.72450547  0.06098369  0.04931729     0.71530
O131        O  0.83903941  0.20416997  0.05611041    -0.73370
O132        O  0.84145064  0.26144778  0.08567119    -0.53940
C133        C  0.83534954  0.24682302  0.06016357     0.77530
O134        O  0.81078877  0.01708158  0.14226063    -0.58520
O135        O  0.73649155  0.01574882  0.13094498    -0.51640
C136        C  0.77411348  0.99740489  0.14045530     0.74120
Zr137      Zr  0.84304175  0.08486018  0.12563241     2.54710
O138        O  0.87336345  0.05186829  0.08123153    -0.79080
O139        O  0.89620926  0.02377681  0.14395180    -0.92500
Zr140      Zr  0.77598825  0.15916903  0.06498162     2.64680
O141        O  0.80748466  0.14726684  0.01696543    -0.97450
O142        O  0.72398582  0.21163347  0.03765068    -0.79520
O143        O  0.84176723  0.15012761  0.09506518    -0.82870
O144        O  0.78233237  0.09094232  0.09340141    -2.17580
O145        O  0.71275848  0.10050174  0.20280850    -0.66260
O146        O  0.67567502  0.06948990  0.16573915    -0.50830
C147        C  0.68180769  0.07677292  0.19296235     0.72510
O148        O  0.73225198  0.29076729  0.13927173    -0.59170
O149        O  0.80932916  0.28615614  0.14015597    -0.51150
C150        C  0.77046323  0.30738086  0.14274355     0.74310
O151        O  0.62977300  0.19261689  0.11322127    -0.70570
O152        O  0.63741827  0.11580002  0.11037636    -0.49240
C153        C  0.61395477  0.15414153  0.10865359     0.75690
O154        O  0.82399964  0.19836959  0.20742407    -0.65900
O155        O  0.86606481  0.23191235  0.17325236    -0.53090
C156        C  0.85572095  0.22319815  0.19948652     0.74070
Zr157      Zr  0.77036999  0.14872459  0.18602760     2.77540
O158        O  0.72932433  0.19320344  0.22263111    -0.96640
O159        O  0.80967020  0.09755635  0.22116059    -0.77470
Zr160      Zr  0.70232271  0.22036627  0.12591892     2.70070
O161        O  0.65032310  0.24863977  0.16313847    -0.78710
O162        O  0.67061209  0.27710412  0.09126429    -0.97800
Zr163      Zr  0.83377627  0.21121802  0.12799389     2.21500
Zr164      Zr  0.71490264  0.09313123  0.12153391     2.11130
O165        O  0.70642807  0.15454115  0.15455858    -2.46480
O166        O  0.76675373  0.21399825  0.15663736    -0.78510
O167        O  0.77744584  0.08712531  0.15422339    -0.70700
O168        O  0.76748612  0.21917930  0.09768669    -2.31660
O169        O  0.83705040  0.14519351  0.15824977    -2.27870
O170        O  0.70886328  0.16035713  0.09246064    -0.72460
H171        H  0.78808030  0.06362258  0.08255464     0.79540
H172        H  0.76330237  0.24764897  0.08747645     0.80620
H173        H  0.67843224  0.15513436  0.16502460     0.82850
H174        H  0.86239160  0.14318503  0.17140062     0.80460
H175        H  0.70219548  0.19221618  0.02897335     0.43490
H176        H  0.66046726  0.25940043  0.07487727     0.42460
H177        H  0.66999004  0.25524569  0.17956111     0.42140
H178        H  0.69711185  0.19143707  0.21770220     0.40070
H179        H  0.82953104  0.07664469  0.20942887     0.43210
H180        H  0.90556326  0.03338809  0.16328289     0.37990
H181        H  0.90011938  0.06856749  0.07705831     0.44110
H182        H  0.81860796  0.11481243  0.01651012     0.40520
H183        H  0.73398770  0.17480555  0.24057641     0.45440
H184        H  0.92350166  0.02435859  0.13186129     0.44160
H185        H  0.78132406  0.15026210  0.00359180     0.44300
H186        H  0.64236690  0.28991242  0.10029706     0.44660
O187        O  0.92982318  0.61514562  0.13455223    -0.74210
O188        O  0.92226365  0.69240787  0.13304775    -0.53120
C189        C  0.94543560  0.65402973  0.13333161     0.79520
O190        O  0.76631293  0.59850121  0.04570932    -0.58810
O191        O  0.73116978  0.55410717  0.07756743    -0.51840
C192        C  0.74657341  0.56297743  0.05219159     0.71530
O193        O  0.85590857  0.71000293  0.05684888    -0.73370
O194        O  0.87359679  0.75257777  0.09498694    -0.53940
C195        C  0.87569423  0.74235723  0.06828573     0.77530
O196        O  0.82889632  0.50927603  0.13825610    -0.58520
O197        O  0.75280011  0.51854529  0.13284530    -0.51640
C198        C  0.78946737  0.49442610  0.13715024     0.74120
Zr199      Zr  0.85871724  0.58369141  0.13451560     2.54710
O200        O  0.90145188  0.53771272  0.09935650    -0.79080
O201        O  0.90149618  0.54384943  0.17347416    -0.92500
Zr202      Zr  0.79849634  0.65925992  0.06963515     2.64680
O203        O  0.83827608  0.63255588  0.02650643    -0.97450
O204        O  0.75009048  0.70801766  0.03759139    -0.79520
O205        O  0.85773927  0.64909794  0.10371398    -0.82870
O206        O  0.80351818  0.59165282  0.09855370    -2.17580
O207        O  0.74800925  0.58059529  0.20039481    -0.66260
O208        O  0.69508253  0.57045878  0.16672877    -0.50830
C209        C  0.70947510  0.56800441  0.19299731     0.72510
O210        O  0.73844117  0.79325073  0.13842086    -0.59170
O211        O  0.81448979  0.78586762  0.14500371    -0.51150
C212        C  0.77624399  0.80869637  0.14475915     0.74310
O213        O  0.64398385  0.68607041  0.11310793    -0.70570
O214        O  0.65823112  0.60955313  0.11067704    -0.49240
C215        C  0.63199512  0.64571384  0.10886794     0.75690
O216        O  0.83631427  0.69841466  0.21263088    -0.65900
O217        O  0.87482808  0.73472337  0.17816270    -0.53090
C218        C  0.86717070  0.72413161  0.20434778     0.74070
Zr219      Zr  0.77954564  0.65211241  0.19032060     2.77540
O220        O  0.71919744  0.69251530  0.21725555    -0.96640
O221        O  0.80201525  0.62562270  0.23863188    -0.77470
Zr222      Zr  0.71433078  0.72037611  0.12538781     2.70070
O223        O  0.65677404  0.75144078  0.15840220    -0.78710
O224        O  0.68377047  0.77167653  0.08729784    -0.97800
Zr225      Zr  0.84279795  0.71139906  0.13437756     2.21500
Zr226      Zr  0.73434251  0.59476543  0.12377465     2.11130
O227        O  0.71876259  0.65613418  0.15608266    -2.46480
O228        O  0.77400322  0.71660100  0.16018164    -0.78510
O229        O  0.79099160  0.58803015  0.16024810    -0.70700
O230        O  0.78353066  0.72183637  0.09976334    -2.31660
O231        O  0.84868658  0.64643718  0.16529567    -2.27870
O232        O  0.72795671  0.65969288  0.09317319    -0.72460
H233        H  0.80988646  0.56473523  0.08736138     0.79540
H234        H  0.78430756  0.75011942  0.08917421     0.80620
H235        H  0.69016804  0.65466696  0.16567869     0.82850
H236        H  0.87439676  0.64541501  0.17812730     0.80460
H237        H  0.72616053  0.68885049  0.03147992     0.43490
H238        H  0.67423416  0.75147413  0.07201506     0.42460
H239        H  0.67326990  0.75553918  0.17664367     0.42140
H240        H  0.70213171  0.66827527  0.22570191     0.40070
H241        H  0.82914985  0.60451421  0.23563221     0.43210
H242        H  0.91294151  0.56795536  0.18535015     0.37990
H243        H  0.90312203  0.55801043  0.08228842     0.44110
H244        H  0.87059242  0.62952746  0.03202067     0.40520
H245        H  0.73460380  0.70508713  0.23392379     0.45440
H246        H  0.92864191  0.52932468  0.16401914     0.44160
H247        H  0.83514440  0.65847849  0.01267975     0.44300
H248        H  0.65517553  0.78565750  0.09526890     0.44660
O249        O  0.34826232  0.29991902  0.95068064    -0.74210
O250        O  0.27890175  0.27165637  0.94956303    -0.53120
C251        C  0.31769863  0.27503960  0.96074532     0.79520
O252        O  0.26338757  0.50121233  0.87430196    -0.58810
O253        O  0.30683256  0.48542343  0.83471382    -0.51840
C254        C  0.28637198  0.51255655  0.85236805     0.71530
O255        O  0.21426568  0.41760020  0.94641774    -0.73370
O256        O  0.24980786  0.34944849  0.95561684    -0.53940
C257        C  0.23776018  0.39085863  0.96340662     0.77530
O258        O  0.41561187  0.39088069  0.88656114    -0.58520
O259        O  0.39412428  0.42484008  0.84359566    -0.51640
C260        C  0.42309287  0.41483405  0.86419679     0.74120
Zr261      Zr  0.35771336  0.34895427  0.90664971     2.54710
O262        O  0.39464415  0.39156325  0.94303230    -0.79080
O263        O  0.42225194  0.29274832  0.90396343    -0.92500
Zr264      Zr  0.24270117  0.43302936  0.89909849     2.64680
O265        O  0.26255258  0.48754853  0.93489739    -0.97450
O266        O  0.16738860  0.47077459  0.89231822    -0.79520
O267        O  0.28284513  0.36736372  0.91894110    -0.82870
O268        O  0.31924012  0.41653558  0.88573383    -2.17580
O269        O  0.37397980  0.30097880  0.80286015    -0.66260
O270        O  0.36812898  0.37792765  0.80132720    -0.50830
C271        C  0.38455832  0.33977308  0.79246154     0.72510
O272        O  0.14302681  0.31099426  0.85930868    -0.59170
O273        O  0.16065768  0.29202968  0.90609267    -0.51150
C274        C  0.13276625  0.29601712  0.88428141     0.74310
O275        O  0.21241316  0.42111652  0.81175970    -0.70570
O276        O  0.27556008  0.41481675  0.78778436    -0.49240
C277        C  0.23227319  0.41591954  0.78779074     0.75690
O278        O  0.31105336  0.20942189  0.86901213    -0.65900
O279        O  0.26271071  0.22120150  0.90708728    -0.53090
C280        C  0.29091030  0.19604535  0.89169100     0.74070
Zr281      Zr  0.31907724  0.27795335  0.84090891     2.77540
O282        O  0.28219296  0.24034281  0.80213391    -0.96640
O283        O  0.38364224  0.22220753  0.83728294    -0.77470
Zr284      Zr  0.20152668  0.35351380  0.83893513     2.70070
O285        O  0.18563269  0.31401950  0.79485912    -0.78710
O286        O  0.12355972  0.38550097  0.83495886    -0.97800
Zr287      Zr  0.24273083  0.30418178  0.90923932     2.21500
Zr288      Zr  0.31578214  0.40484436  0.83499228     2.11130
O289        O  0.27666506  0.34069254  0.82055774    -2.46480
O290        O  0.24309165  0.28865113  0.85878539    -0.78510
O291        O  0.35736612  0.34007249  0.85584988    -0.70700
O292        O  0.20140317  0.36925879  0.88893153    -2.31660
O293        O  0.31837392  0.28868729  0.89173002    -2.27870
O294        O  0.23907551  0.41956504  0.84953632    -0.72460
H295        H  0.33592384  0.44233249  0.88982795     0.79540
H296        H  0.17127350  0.37432219  0.89652756     0.80620
H297        H  0.27643752  0.33608224  0.79999348     0.82850
H298        H  0.33420933  0.26330570  0.90168163     0.80460
H299        H  0.15064351  0.46272034  0.90979831     0.43490
H300        H  0.12503307  0.41876805  0.83478700     0.42460
H301        H  0.18525418  0.28187540  0.80098483     0.42140
H302        H  0.29844778  0.24861657  0.78449862     0.40070
H303        H  0.40518145  0.23140406  0.85198527     0.43210
H304        H  0.41399906  0.26647094  0.91565452     0.37990
H305        H  0.38165339  0.42324278  0.94021136     0.44110
H306        H  0.29379236  0.49412688  0.93021031     0.40520
H307        H  0.29133832  0.20770984  0.80532340     0.45440
H308        H  0.44615227  0.30569059  0.91535881     0.44160
H309        H  0.24381397  0.51588323  0.93000547     0.44300
H310        H  0.11339365  0.37795131  0.81540518     0.44660
O311        O  0.26995103  0.94175512  0.95056783    -0.74210
O312        O  0.34446606  0.92911470  0.96084075    -0.53120
C313        C  0.30717919  0.95309397  0.96243224     0.79520
O314        O  0.33127004  0.71077931  0.87893599    -0.58810
O315        O  0.27280945  0.73059202  0.84858819    -0.51840
C316        C  0.30174357  0.70121229  0.86023460     0.71530
O317        O  0.37557344  0.78817997  0.95703558    -0.73370
O318        O  0.35217327  0.85872128  0.96685689    -0.53940
C319        C  0.35554292  0.81608137  0.97431845     0.77530
O320        O  0.17804306  0.86773217  0.89424857    -0.58520
O321        O  0.18919241  0.82001568  0.85617690    -0.51640
C322        C  0.16364070  0.84368848  0.87424534     0.74120
Zr323      Zr  0.24664707  0.87920943  0.91771641     2.54710
O324        O  0.22938042  0.83120100  0.95854564    -0.79080
O325        O  0.18014935  0.92506553  0.93425028    -0.92500
Zr326      Zr  0.33802908  0.77174618  0.91224464     2.64680
O327        O  0.28060930  0.72748434  0.93348280    -0.97450
O328        O  0.39356579  0.71107588  0.92779468    -0.79520
O329        O  0.31570985  0.84443479  0.92963326    -0.82870
O330        O  0.26540958  0.80479153  0.89808748    -2.17580
O331        O  0.24203670  0.91314303  0.80710899    -0.66260
O332        O  0.23277248  0.83742672  0.80678365    -0.50830
C333        C  0.22530341  0.87717536  0.79649941     0.72510
O334        O  0.45374728  0.88453308  0.86685950    -0.59170
O335        O  0.45242317  0.88274382  0.91494498    -0.51150
C336        C  0.47422408  0.87892216  0.89094007     0.74310
O337        O  0.37909418  0.78009073  0.81584308    -0.70570
O338        O  0.31105507  0.80032873  0.79856718    -0.49240
C339        C  0.35428201  0.79406905  0.79472477     0.75690
O340        O  0.32246789  0.99876786  0.87092093    -0.65900
O341        O  0.36485402  0.97920870  0.91163430    -0.53090
C342        C  0.34309911  0.00827687  0.89426283     0.74070
Zr343      Zr  0.29694223  0.93300195  0.84718008     2.77540
O344        O  0.33822117  0.96339340  0.80707995    -0.96640
O345        O  0.23856561  0.99546669  0.84311875    -0.77470
Zr346      Zr  0.39897190  0.83565766  0.84974242     2.70070
O347        O  0.43370954  0.86949036  0.80828241    -0.78710
O348        O  0.46574321  0.78194701  0.85094416    -0.97800
Zr349      Zr  0.36910948  0.89536092  0.91812418     2.21500
Zr350      Zr  0.27305621  0.81187887  0.84685779     2.11130
O351        O  0.32651028  0.86366842  0.83153500    -2.46480
O352        O  0.37012475  0.90725703  0.86677393    -0.78510
O353        O  0.24636124  0.88381895  0.86598424    -0.70700
O354        O  0.39454716  0.82184754  0.90015776    -2.31660
O355        O  0.29737801  0.92647859  0.89831500    -2.27870
O356        O  0.34638871  0.78250061  0.86246788    -0.72460
H357        H  0.24175487  0.78532246  0.90229265     0.79540
H358        H  0.42302528  0.80957523  0.90825877     0.80620
H359        H  0.32818517  0.87077391  0.81134028     0.82850
H360        H  0.28624599  0.95586171  0.90478801     0.80460
H361        H  0.41930144  0.71370503  0.91459185     0.43490
H362        H  0.47414196  0.77824397  0.87157260     0.42460
H363        H  0.41694333  0.89962257  0.80576649     0.42140
H364        H  0.32309682  0.95311623  0.78958916     0.40070
H365        H  0.21762754  0.98996377  0.85908178     0.43210
H366        H  0.18455039  0.95627555  0.92751288     0.37990
H367        H  0.22146126  0.85257570  0.97427851     0.44110
H368        H  0.26644347  0.74590480  0.94908143     0.40520
H369        H  0.33001619  0.99648589  0.80741963     0.45440
H370        H  0.18328957  0.92598183  0.95549326     0.44160
H371        H  0.29666199  0.70049133  0.94282402     0.44300
H372        H  0.48990229  0.79878147  0.84236406     0.44660
O373        O  0.72159994  0.29083380  0.94766708    -0.74210
O374        O  0.72183030  0.36547102  0.95538938    -0.53120
C375        C  0.72936097  0.32367867  0.96400326     0.79520
O376        O  0.91733968  0.33477911  0.89613135    -0.58810
O377        O  0.91506597  0.29407432  0.85495511    -0.51840
C378        C  0.93660778  0.30950585  0.87679350     0.71530
O379        O  0.81653471  0.41853772  0.95092025    -0.73370
O380        O  0.74060896  0.43872619  0.94688575    -0.53940
C381        C  0.77899389  0.43973565  0.95935851     0.77530
O382        O  0.81009494  0.20839493  0.88922796    -0.58520
O383        O  0.84725530  0.22075714  0.84726229    -0.51640
C384        C  0.83598913  0.19501698  0.86840271     0.74120
Zr385      Zr  0.75881661  0.27303720  0.90228245     2.54710
O386        O  0.76130278  0.21235122  0.93882813    -0.79080
O387        O  0.69658426  0.23349317  0.88372334    -0.92500
Zr388      Zr  0.84464587  0.37088038  0.90951788     2.64680
O389        O  0.87921835  0.33979473  0.95406633    -0.97450
O390        O  0.89364920  0.43261486  0.90628165    -0.79520
O391        O  0.77520451  0.34421039  0.91993604    -0.82870
O392        O  0.83122009  0.29790313  0.89077364    -2.17580
O393        O  0.73381274  0.26710368  0.81385921    -0.66260
O394        O  0.79778938  0.28011398  0.79245668    -0.50830
C395        C  0.75625686  0.27007069  0.79080184     0.72510
O396        O  0.72697118  0.48323826  0.84978471    -0.59170
O397        O  0.71479260  0.48322297  0.89726255    -0.51150
C398        C  0.72186339  0.50448257  0.87343360     0.74310
O399        O  0.85118518  0.41669721  0.80557313    -0.70570
O400        O  0.87797483  0.34259711  0.80248461    -0.49240
C401        C  0.87797778  0.38495076  0.79498350     0.75690
O402        O  0.63285741  0.37579084  0.85102249    -0.65900
O403        O  0.63673916  0.41036649  0.89434486    -0.53090
C404        C  0.61495399  0.39981569  0.87148661     0.74070
Zr405      Zr  0.70344488  0.33569631  0.83612765     2.77540
O406        O  0.67979225  0.36870501  0.78939037    -0.96640
O407        O  0.64022090  0.29036504  0.82738865    -0.77470
Zr408      Zr  0.78998080  0.42887364  0.83970083     2.70070
O409        O  0.76648713  0.46256874  0.79325565    -0.78710
O410        O  0.83242859  0.49360206  0.84999105    -0.97800
Zr411      Zr  0.71785313  0.40029289  0.90558035     2.21500
Zr412      Zr  0.83407240  0.30317752  0.83865751     2.11130
O413        O  0.77531277  0.35823935  0.82062455    -2.46480
O414        O  0.71885480  0.40666244  0.85424341    -0.78510
O415        O  0.76108267  0.27989237  0.85199966    -0.70700
O416        O  0.78926711  0.42520013  0.89073888    -2.31660
O417        O  0.70007376  0.32826518  0.88722516    -2.27870
O418        O  0.84678417  0.37543889  0.85836529    -0.72460
H419        H  0.85453280  0.27595235  0.89805515     0.79540
H420        H  0.79471418  0.45435494  0.89846084     0.80620
H421        H  0.77655147  0.36101303  0.79988822     0.82850
H422        H  0.67094172  0.32028559  0.89375073     0.80460
H423        H  0.87627657  0.45881229  0.91508993     0.43490
H424        H  0.86309889  0.48008929  0.85496542     0.42460
H425        H  0.73671437  0.45114813  0.78948971     0.42140
H426        H  0.70739267  0.36948236  0.77769991     0.40070
H427        H  0.64931639  0.26030133  0.83618942     0.43210
H428        H  0.67897809  0.22637855  0.90103124     0.37990
H429        H  0.79334981  0.20135439  0.94179242     0.44110
H430        H  0.89403844  0.30984810  0.94888258     0.40520
H431        H  0.66259694  0.34550656  0.78022581     0.45440
H432        H  0.71080344  0.20377584  0.87758725     0.44160
H433        H  0.90444835  0.35874644  0.95775558     0.44300
H434        H  0.83592834  0.50852671  0.83097534     0.44660
O435        O  0.75467426  0.90558089  0.95571941    -0.74210
O436        O  0.82234353  0.93605107  0.95051877    -0.53120
C437        C  0.78386053  0.93270761  0.96304808     0.79520
O438        O  0.80348651  0.69899606  0.89520415    -0.58810
O439        O  0.76457419  0.71402191  0.85301576    -0.51840
C440        C  0.77787920  0.68772740  0.87426661     0.71530
O441        O  0.88293212  0.78803282  0.95245502    -0.73370
O442        O  0.89471642  0.86330051  0.95516251    -0.53940
C443        C  0.89715472  0.82240868  0.96534123     0.77530
O444        O  0.68087279  0.81497859  0.90451223    -0.58520
O445        O  0.68582282  0.80741327  0.85614898    -0.51640
C446        C  0.66265779  0.81333163  0.87973782     0.74120
Zr447      Zr  0.74316865  0.85741080  0.91548466     2.54710
O448        O  0.72307196  0.81878488  0.95969940    -0.79080
O449        O  0.67848220  0.91361525  0.91526109    -0.92500
Zr450      Zr  0.84466575  0.76517047  0.90925458     2.64680
O451        O  0.83164731  0.71856056  0.95171310    -0.97450
O452        O  0.91260806  0.71606219  0.89985427    -0.79520
O453        O  0.81834308  0.83673108  0.92846125    -0.82870
O454        O  0.76929345  0.78652740  0.89598505    -2.17580
O455        O  0.72315832  0.89380311  0.80740276    -0.66260
O456        O  0.72119326  0.81665018  0.80643046    -0.50830
C457        C  0.70800562  0.85646135  0.79769157     0.72510
O458        O  0.95677166  0.85648060  0.86006381    -0.59170
O459        O  0.94538085  0.89528664  0.90170495    -0.51150
C460        C  0.97101527  0.87780101  0.88134097     0.74310
O461        O  0.87196125  0.77032377  0.81250429    -0.70570
O462        O  0.80428200  0.78614838  0.79492396    -0.49240
C463        C  0.84755105  0.78352544  0.79123202     0.75690
O464        O  0.81669658  0.98715471  0.85703477    -0.65900
O465        O  0.86483165  0.97544558  0.89561830    -0.53090
C466        C  0.84522039  0.00066101  0.87535456     0.74070
Zr467      Zr  0.77910264  0.91986585  0.84474679     2.77540
O468        O  0.79662379  0.95866615  0.79999153    -0.96640
O469        O  0.71502401  0.97420140  0.85406209    -0.77470
Zr470      Zr  0.88868316  0.83098706  0.84285087     2.70070
O471        O  0.90753906  0.88217180  0.80419584    -0.78710
O472        O  0.96036864  0.78712450  0.83409117    -0.97800
Zr473      Zr  0.86200323  0.89549292  0.91049614     2.21500
Zr474      Zr  0.76863605  0.79410337  0.84450484     2.11130
O475        O  0.81341698  0.85256181  0.82764569    -2.46480
O476        O  0.85653516  0.90158336  0.85931018    -0.78510
O477        O  0.73744511  0.86336692  0.86448405    -0.70700
O478        O  0.89045720  0.82262995  0.89337767    -2.31660
O479        O  0.78494095  0.91521641  0.89606767    -2.27870
O480        O  0.84501947  0.77128503  0.85838838    -0.72460
H481        H  0.74983172  0.76406078  0.90255797     0.79540
H482        H  0.92060505  0.81409844  0.90042560     0.80620
H483        H  0.81213357  0.85926514  0.80738568     0.82850
H484        H  0.77396460  0.94423714  0.90367717     0.80460
H485        H  0.93171722  0.71875023  0.91718263     0.43490
H486        H  0.95312401  0.75596321  0.82964620     0.42460
H487        H  0.88599112  0.90930408  0.80601286     0.42140
H488        H  0.79198334  0.93681280  0.78455573     0.40070
H489        H  0.68832148  0.95818000  0.84882683     0.43210
H490        H  0.66593371  0.91308016  0.89547163     0.37990
H491        H  0.74998811  0.79800878  0.96449959     0.44110
H492        H  0.79862251  0.71641887  0.95212958     0.40520
H493        H  0.77156647  0.98259416  0.79736977     0.45440
H494        H  0.65583342  0.90006894  0.92752104     0.44160
H495        H  0.84455953  0.68768412  0.94693611     0.44300
H496        H  0.97199577  0.79948457  0.81590615     0.44660
O497        O  0.96239431  0.45219725  0.68068644    -0.74210
O498        O  0.03055734  0.42342383  0.69388609    -0.53120
C499        C  0.99000716  0.43885826  0.70053031     0.79520
O500        O  0.00471134  0.22207979  0.65043841    -0.58810
O501        O  0.95920374  0.22962636  0.61031647    -0.51840
C502        C  0.98047367  0.20624302  0.63078679     0.71530
O503        O  0.09015192  0.32162071  0.69682678    -0.73370
O504        O  0.11338874  0.38980627  0.68188499    -0.53940
C505        C  0.11524965  0.35566395  0.69902233     0.77530
O506        O  0.86513631  0.37304964  0.63078286    -0.58520
O507        O  0.87697416  0.31374507  0.60020450    -0.51640
C508        C  0.85178723  0.34245384  0.61429806     0.74120
Zr509      Zr  0.93541156  0.39476299  0.65053686     2.54710
O510        O  0.90140542  0.36833545  0.69468583    -0.79080
O511        O  0.87764528  0.45810316  0.65146811    -0.92500
Zr512      Zr  0.03088252  0.29336721  0.66316955     2.64680
O513        O  0.98964272  0.27887824  0.70709713    -0.97450
O514        O  0.08614879  0.23134640  0.67691570    -0.79520
O515        O  0.00799821  0.36903422  0.66905581    -0.82870
O516        O  0.95631346  0.31682852  0.64435647    -2.17580
O517        O  0.92632889  0.40882079  0.55780501    -0.66260
O518        O  0.93900849  0.34040029  0.54199422    -0.50830
C519        C  0.93252051  0.38336322  0.53650250     0.72510
O520        O  0.14726541  0.34397411  0.59666039    -0.59170
O521        O  0.14034986  0.40231125  0.62900749    -0.51150
C522        C  0.16309386  0.37357154  0.61296124     0.74310
O523        O  0.04060001  0.25875580  0.54921957    -0.70570
O524        O  0.97101732  0.24523939  0.56562365    -0.49240
C525        C  0.00290076  0.23843323  0.54793895     0.75690
O526        O  0.01757717  0.49808168  0.59237191    -0.65900
O527        O  0.05839053  0.49120025  0.63409911    -0.53090
C528        C  0.03685225  0.51462196  0.61391143     0.74070
Zr529      Zr  0.99619047  0.42629469  0.57722016     2.77540
O530        O  0.04944859  0.43238644  0.53784922    -0.96640
O531        O  0.96331896  0.49390997  0.55202741    -0.77470
Zr532      Zr  0.07778836  0.31323808  0.58399692     2.70070
O533        O  0.11677678  0.32568525  0.53888617    -0.78710
O534        O  0.12544101  0.24320440  0.59206383    -0.97800
Zr535      Zr  0.06197540  0.40928487  0.64429839     2.21500
Zr536      Zr  0.95604288  0.30931543  0.59281818     2.11130
O537        O  0.01078011  0.34773375  0.56616214    -2.46480
O538        O  0.06599384  0.39364169  0.59381773    -0.78510
O539        O  0.93772935  0.38801291  0.60003686    -0.70700
O540        O  0.08145565  0.33014792  0.63468444    -2.31660
O541        O  0.98931637  0.43702396  0.62719982    -2.27870
O542        O  0.02636786  0.27922410  0.61259989    -0.72460
H543        H  0.93414294  0.29877886  0.65291530     0.79540
H544        H  0.11112929  0.32041224  0.64207554     0.80620
H545        H  0.01358694  0.34279308  0.54574489     0.82850
H546        H  0.97956102  0.46774326  0.63194250     0.80460
H547        H  0.11434455  0.23868652  0.66733275     0.43490
H548        H  0.12943638  0.24097449  0.61325489     0.42460
H549        H  0.09400475  0.32204006  0.52364674     0.42140
H550        H  0.05143672  0.40323338  0.52769023     0.40070
H551        H  0.93592007  0.50353800  0.56313639     0.43210
H552        H  0.89318717  0.48488769  0.64533415     0.37990
H553        H  0.92049653  0.34077959  0.70062398     0.44110
H554        H  0.96823812  0.25661906  0.70155565     0.40520
H555        H  0.03472145  0.45496404  0.52415608     0.45440
H556        H  0.87115483  0.46283719  0.67217635     0.44160
H557        H  0.01200436  0.26150273  0.71973777     0.44300
H558        H  0.15540591  0.24985368  0.58471378     0.44660
O559        O  0.92273435  0.92807766  0.70027497    -0.74210
O560        O  0.98971531  0.89632869  0.71179671    -0.53120
C561        C  0.94743839  0.90588763  0.71857969     0.79520
O562        O  0.00411621  0.71761858  0.64333534    -0.58810
O563        O  0.94855413  0.72523079  0.60885572    -0.51840
C564        C  0.98014158  0.70201527  0.62346052     0.71530
O565        O  0.06642730  0.81404736  0.70696499    -0.73370
O566        O  0.07398125  0.89019851  0.70366600    -0.53940
C567        C  0.08337327  0.85150950  0.71531037     0.77530
O568        O  0.84245733  0.87815539  0.62882860    -0.58520
O569        O  0.85199256  0.81029196  0.60734013    -0.51640
C570        C  0.82671043  0.84433148  0.61671953     0.74120
Zr571      Zr  0.90446899  0.87892128  0.66247753     2.54710
O572        O  0.86313984  0.82777554  0.69198875    -0.79080
O573        O  0.84380126  0.93399823  0.67713230    -0.92500
Zr574      Zr  0.00945992  0.78462419  0.67053958     2.64680
O575        O  0.96384419  0.75397214  0.70832563    -0.97450
O576        O  0.06370598  0.72262597  0.68608183    -0.79520
O577        O  0.97845815  0.85566287  0.68005432    -0.82870
O578        O  0.93321432  0.80381131  0.65153195    -2.17580
O579        O  0.90266010  0.91288783  0.56719539    -0.66260
O580        O  0.91656869  0.84445375  0.55015547    -0.50830
C581        C  0.91176577  0.88796433  0.54578877     0.72510
O582        O  0.10799241  0.88207512  0.60260713    -0.59170
O583        O  0.11263789  0.89345563  0.65021280    -0.51150
C584        C  0.13136707  0.88309270  0.62566271     0.74310
O585        O  0.02784515  0.77111254  0.55682779    -0.70570
O586        O  0.95535980  0.75457884  0.56528558    -0.49240
C587        C  0.99170338  0.75000300  0.55103186     0.75690
O588        O  0.98887536  0.00081560  0.61421167    -0.65900
O589        O  0.02615100  0.98792010  0.65709182    -0.53090
C590        C  0.00868504  0.01409739  0.63668069     0.74070
Zr591      Zr  0.96541136  0.93117415  0.59626630     2.77540
O592        O  0.03100879  0.94175784  0.56542303    -0.96640
O593        O  0.91649935  0.00204151  0.59206781    -0.77470
Zr594      Zr  0.05643207  0.82466194  0.59534716     2.70550
O595        O  0.09988697  0.83377778  0.55161166    -0.78710
O596        O  0.11477437  0.76477972  0.60771249    -0.97800
Zr597      Zr  0.03056787  0.90501900  0.66324929     2.21500
Zr598      Zr  0.93337252  0.80797989  0.59948729     2.11130
O599        O  0.98642739  0.85622463  0.57894900    -2.46480
O600        O  0.03610450  0.90054408  0.61224438    -0.78510
O601        O  0.91028763  0.88334871  0.61244412    -0.70700
O602        O  0.05885271  0.83011240  0.64734548    -2.31660
O603        O  0.95703480  0.93071950  0.64659026    -2.27870
O604        O  0.00561385  0.78353857  0.61918569    -0.72460
H605        H  0.91328576  0.78139072  0.65753812     0.79540
H606        H  0.08862555  0.81987524  0.65437504     0.80620
H607        H  0.99039528  0.85585013  0.55831890     0.82850
H608        H  0.94697041  0.96050985  0.65336357     0.80460
H609        H  0.06430482  0.72376612  0.70740097     0.43490
H610        H  0.11477671  0.74380077  0.59129444     0.42460
H611        H  0.07776714  0.84788024  0.53744310     0.42140
H612        H  0.02911956  0.92354614  0.54783431     0.40070
H613        H  0.89101150  0.99740721  0.60513659     0.43210
H614        H  0.83869195  0.95491417  0.66034610     0.37990
H615        H  0.88636996  0.80753196  0.70215864     0.44110
H616        H  0.94972663  0.72869234  0.69911556     0.40520
H617        H  0.02998014  0.97393085  0.55912696     0.45440
H618        H  0.81653787  0.91701394  0.67796700     0.44160
H619        H  0.98583521  0.73893258  0.72221656     0.44300
H620        H  0.14341450  0.77927989  0.60576061     0.44660
O621        O  0.48477039  0.41311631  0.68517056    -0.74210
O622        O  0.54844925  0.38032369  0.70100122    -0.53120
C623        C  0.50785978  0.39578148  0.70620978     0.79520
O624        O  0.48053734  0.19281125  0.65272854    -0.58810
O625        O  0.45043145  0.20417139  0.60751755    -0.51840
C626        C  0.46365259  0.17875282  0.62947927     0.71530
O627        O  0.59472645  0.26376551  0.69226563    -0.73370
O628        O  0.62156385  0.33300174  0.68486310    -0.53940
C629        C  0.62362020  0.29351431  0.69721718     0.77530
O630        O  0.37559040  0.37090222  0.62627552    -0.58520
O631        O  0.37119879  0.30236881  0.60592457    -0.51640
C632        C  0.35333977  0.34031510  0.61520891     0.74120
Zr633      Zr  0.44153322  0.36360526  0.65700537     2.54710
O634        O  0.40450920  0.32439520  0.69557392    -0.79080
O635        O  0.38681911  0.42113354  0.67616021    -0.92500
Zr636      Zr  0.52744908  0.25324523  0.66070225     2.64680
O637        O  0.49996876  0.23954559  0.70916748    -0.97450
O638        O  0.57518369  0.18237200  0.65974104    -0.79520
O639        O  0.51264364  0.32882025  0.67193592    -0.82870
O640        O  0.45354239  0.28583990  0.64567633    -2.17580
O641        O  0.42757269  0.38689333  0.56506055    -0.66260
O642        O  0.42996554  0.32058063  0.54524993    -0.50830
C643        C  0.42877995  0.36397498  0.54231729     0.72510
O644        O  0.64574664  0.30806366  0.59472985    -0.59170
O645        O  0.64265789  0.36499780  0.62830974    -0.51150
C646        C  0.66312264  0.33769537  0.61042454     0.74310
O647        O  0.53215203  0.22935942  0.54806415    -0.70570
O648        O  0.45666567  0.23231234  0.55739834    -0.49240
C649        C  0.49096304  0.21763561  0.54296729     0.75690
O650        O  0.53685566  0.46555870  0.59827924    -0.65900
O651        O  0.56233972  0.45463969  0.64419060    -0.53090
C652        C  0.54745456  0.48084934  0.62276465     0.74070
Zr653      Zr  0.49992927  0.39997381  0.58391868     2.77540
O654        O  0.54556410  0.40890623  0.54109100    -0.96640
O655        O  0.46393993  0.47262857  0.56728841    -0.77470
Zr656      Zr  0.57288872  0.28133718  0.58316034     2.70070
O657        O  0.60459511  0.29843706  0.53632995    -0.78710
O658        O  0.62069038  0.21073102  0.58768896    -0.97800
Zr659      Zr  0.56900161  0.36961136  0.64964774     2.21500
Zr660      Zr  0.44938287  0.28544281  0.59391430     2.11130
O661        O  0.50694739  0.32277379  0.56904972    -2.46480
O662        O  0.56777488  0.35987970  0.59818719    -0.78510
O663        O  0.44054369  0.36344808  0.60622349    -0.70700
O664        O  0.58006667  0.29140503  0.63433253    -2.31660
O665        O  0.49684976  0.40509639  0.63449985    -2.27870
O666        O  0.51883802  0.24675937  0.60974859    -0.72460
H667        H  0.42997958  0.26917831  0.65383709     0.79540
H668        H  0.60980873  0.27858456  0.63985553     0.80620
H669        H  0.50718645  0.32021530  0.54838357     0.82850
H670        H  0.48752390  0.43628368  0.63858918     0.80460
H671        H  0.60249153  0.18996051  0.64921786     0.43490
H672        H  0.59929722  0.18710814  0.59015867     0.42460
H673        H  0.61712487  0.32809620  0.53874267     0.42140
H674        H  0.54520886  0.38055637  0.53019831     0.40070
H675        H  0.44430883  0.48312241  0.58345698     0.43210
H676        H  0.38159596  0.44392991  0.66038857     0.37990
H677        H  0.42914381  0.30559875  0.70547089     0.44110
H678        H  0.47036626  0.22724768  0.70633508     0.40520
H679        H  0.52845680  0.43249963  0.52920316     0.45440
H680        H  0.35819078  0.40647409  0.67764702     0.44160
H681        H  0.51989168  0.21345116  0.71661704     0.44300
H682        H  0.63322783  0.20575745  0.56814693     0.44660
O683        O  0.42737782  0.91095766  0.68957783    -0.74210
O684        O  0.49524502  0.88329501  0.70232796    -0.53120
C685        C  0.45346470  0.89404613  0.70913536     0.79520
O686        O  0.48970097  0.68509462  0.65142940    -0.58810
O687        O  0.44567484  0.69104841  0.61061442    -0.51840
C688        C  0.47006498  0.66771614  0.63023023     0.71530
O689        O  0.56351417  0.78967059  0.70055480    -0.73370
O690        O  0.57867152  0.86226592  0.68943068    -0.53940
C691        C  0.58502400  0.82605772  0.70449208     0.77530
O692        O  0.33575280  0.84872842  0.63096086    -0.58520
O693        O  0.34259927  0.78324775  0.60580861    -0.51640
C694        C  0.31891302  0.81734957  0.61706653     0.74120
Zr695      Zr  0.40383171  0.85452938  0.65771367     2.54710
O696        O  0.36942868  0.81046911  0.69514853    -0.79080
O697        O  0.34497291  0.91120029  0.67300929    -0.92500
Zr698      Zr  0.50579814  0.75893360  0.66626834     2.64680
O699        O  0.46877197  0.73639850  0.71022498    -0.97450
O700        O  0.56827884  0.70218510  0.67599038    -0.79520
O701        O  0.47817116  0.83231584  0.67431039    -0.82870
O702        O  0.42878419  0.77742324  0.64908386    -2.17580
O703        O  0.39381754  0.87313866  0.56362854    -0.66260
O704        O  0.40859607  0.80524833  0.54688489    -0.50830
C705        C  0.40241024  0.84835467  0.54208608     0.72510
O706        O  0.61816354  0.82090273  0.60136601    -0.59170
O707        O  0.60817107  0.87547937  0.63602354    -0.51150
C708        C  0.63273761  0.84995186  0.61864159     0.74310
O709        O  0.51703598  0.73858747  0.54977411    -0.70570
O710        O  0.44373277  0.72509722  0.55889142    -0.49240
C711        C  0.47939093  0.72018144  0.54370974     0.75690
O712        O  0.47880273  0.97081455  0.60364898    -0.65900
O713        O  0.52184870  0.96159464  0.64439205    -0.53090
C714        C  0.50032118  0.98629714  0.62482370     0.74070
Zr715      Zr  0.45921872  0.89841117  0.58609690     2.77540
O716        O  0.51013105  0.91259477  0.54663634    -0.96640
O717        O  0.41706084  0.96473410  0.56482388    -0.77470
Zr718      Zr  0.54846397  0.79026627  0.58827119     2.70070
O719        O  0.58321054  0.81142418  0.54312619    -0.78710
O720        O  0.59875285  0.72150074  0.59416312    -0.97800
Zr721      Zr  0.52836844  0.87930519  0.65178820     2.21500
Zr722      Zr  0.42560480  0.77397722  0.59716098     2.11130
O723        O  0.47812313  0.82097317  0.57400180    -2.46480
O724        O  0.53171413  0.86920257  0.60065831    -0.78510
O725        O  0.40524411  0.85224283  0.60712310    -0.70700
O726        O  0.55282392  0.80244040  0.63932128    -2.31660
O727        O  0.45368141  0.90443829  0.63646237    -2.27870
O728        O  0.49926402  0.74964838  0.61522792    -0.72460
H729        H  0.40865714  0.75683622  0.65732875     0.79540
H730        H  0.58305066  0.79387602  0.64619772     0.80620
H731        H  0.48152804  0.81853231  0.55348415     0.82850
H732        H  0.44290425  0.93460784  0.64208443     0.80460
H733        H  0.58717016  0.70272323  0.65848760     0.43490
H734        H  0.57841799  0.69672954  0.59533895     0.42460
H735        H  0.59208772  0.84249237  0.54616996     0.42140
H736        H  0.51556243  0.88374091  0.53633518     0.40070
H737        H  0.39121722  0.97111234  0.57793911     0.43210
H738        H  0.33564295  0.92873976  0.65531064     0.37990
H739        H  0.39459422  0.79110849  0.70403760     0.44110
H740        H  0.44995852  0.71210371  0.70424452     0.40520
H741        H  0.49247634  0.93344681  0.53319751     0.45440
H742        H  0.31879396  0.89413551  0.67803710     0.44160
H743        H  0.49326484  0.72057178  0.72201447     0.44300
H744        H  0.61366682  0.71760850  0.57521860     0.44660
O745        O  0.03115566  0.08632868  0.30192420    -0.74210
O746        O  0.05416871  0.15563331  0.31352353    -0.53120
C747        C  0.05503012  0.12040534  0.29809579     0.79520
O748        O  0.81790195  0.13867753  0.36987249    -0.58810
O749        O  0.82992141  0.07773456  0.40061040    -0.51840
C750        C  0.80441195  0.10652738  0.38550855     0.71530
O751        O  0.90652452  0.21506294  0.31522902    -0.73370
O752        O  0.98257049  0.21953673  0.31201795    -0.53940
C753        C  0.94149745  0.22838333  0.30281283     0.77530
O754        O  0.94547265  0.99182467  0.34788819    -0.58520
O755        O  0.93340831  0.99456498  0.39596832    -0.51640
C756        C  0.94518676  0.97283598  0.37274150     0.74120
Zr757      Zr  0.97664419  0.06256006  0.33801152     2.54710
O758        O  0.93228420  0.05526712  0.29433827    -0.79080
O759        O  0.03333182  0.00078240  0.32753020    -0.92500
Zr760      Zr  0.88783351  0.16339597  0.35239574     2.64680
O761        O  0.84964740  0.14073286  0.30899259    -0.97450
O762        O  0.83640987  0.23113403  0.35758664    -0.79520
O763        O  0.95827812  0.14037329  0.33137532    -0.82870
O764        O  0.90514735  0.08471442  0.35936361    -2.17580
O765        O  0.00447244  0.01956742  0.44606724    -0.66260
O766        O  0.92840119  0.01369695  0.44263364    -0.50830
C767        C  0.96744058  0.00036255  0.45238350     0.72510
O768        O  0.97295499  0.26784773  0.40539673    -0.59170
O769        O  0.01909339  0.25845481  0.36681723    -0.51150
C770        C  0.99660891  0.28367302  0.38511628     0.74310
O771        O  0.88793540  0.16790125  0.44757586    -0.70570
O772        O  0.90049131  0.09804177  0.46256693    -0.49240
C773        C  0.89865376  0.14063284  0.46822456     0.75690
O774        O  0.10433617  0.10626555  0.39904103    -0.65900
O775        O  0.09694060  0.16517654  0.36617416    -0.53090
C776        C  0.12033402  0.13484706  0.38179781     0.74070
Zr777      Zr  0.03374176  0.08242761  0.41441376     2.77540
O778        O  0.06698554  0.10050428  0.46050780    -0.96640
O779        O  0.08657811  0.01575375  0.40914161    -0.77470
Zr780      Zr  0.95110468  0.19503485  0.42270433     2.70070
O781        O  0.00471893  0.20221473  0.46155968    -0.78710
O782        O  0.90910297  0.26574595  0.43610288    -0.97800
Zr783      Zr  0.01510746  0.17834188  0.35527644     2.21500
Zr784      Zr  0.91034585  0.07436076  0.41080591     2.11130
O785        O  0.96767574  0.11559967  0.43264722    -2.46480
O786        O  0.02150267  0.16362089  0.40580891    -0.78510
O787        O  0.97913479  0.04854352  0.38873380    -0.70700
O788        O  0.94352099  0.20530915  0.37273205    -2.31660
O789        O  0.03167519  0.09838920  0.36361296    -2.27870
O790        O  0.89266368  0.15414370  0.40283825    -0.72460
H791        H  0.88193191  0.06761233  0.35136771     0.79540
H792        H  0.93490076  0.23622929  0.36688311     0.80620
H793        H  0.97396675  0.10973459  0.45274837     0.82850
H794        H  0.06031640  0.08792319  0.35536137     0.80460
H795        H  0.84163082  0.24108619  0.37752451     0.43490
H796        H  0.87759924  0.25864366  0.43927602     0.42460
H797        H  0.01673059  0.23196072  0.45795307     0.42140
H798        H  0.05262616  0.08136596  0.47488525     0.40070
H799        H  0.09975094  0.01004722  0.42863775     0.43210
H800        H  0.03898894  0.98447800  0.34617329     0.37990
H801        H  0.93317566  0.08480896  0.28413990     0.44110
H802        H  0.83487924  0.11322521  0.31465361     0.40520
H803        H  0.09857474  0.08715065  0.45955410     0.45440
H804        H  0.01771103  0.97960819  0.31544737     0.44160
H805        H  0.82442680  0.16439300  0.30601619     0.44300
H806        H  0.92091728  0.27420173  0.45502274     0.44660
O807        O  0.05474066  0.60585297  0.29127414    -0.74210
O808        O  0.08379527  0.66988155  0.30685786    -0.53120
C809        C  0.07864685  0.64061200  0.28747276     0.79520
O810        O  0.84909211  0.64362379  0.35777435    -0.58810
O811        O  0.85761448  0.58968194  0.39325397    -0.51840
C812        C  0.83356963  0.61542420  0.37554696     0.71530
O813        O  0.95699099  0.68950574  0.30119352    -0.73370
O814        O  0.01316522  0.73324869  0.31066599    -0.53940
C815        C  0.97844516  0.72411070  0.29577827     0.77530
O816        O  0.99143626  0.49655868  0.34821367    -0.58520
O817        O  0.94352469  0.50354445  0.38646440    -0.51640
C818        C  0.96762508  0.47960026  0.36810670     0.74120
Zr819      Zr  0.00922630  0.57095522  0.33114504     2.54710
O820        O  0.95975197  0.55525342  0.29122987    -0.79080
O821        O  0.06698353  0.51373929  0.31513601    -0.92500
Zr822      Zr  0.91966107  0.67333505  0.34531106     2.64680
O823        O  0.86691291  0.68279884  0.30481744    -0.97450
O824        O  0.88400778  0.74939772  0.35273803    -0.79520
O825        O  0.99109596  0.64830668  0.32660582    -0.82870
O826        O  0.93578962  0.59402532  0.35084411    -2.17580
O827        O  0.03020338  0.52513020  0.44260998    -0.66260
O828        O  0.95458307  0.52335378  0.43502323    -0.50830
C829        C  0.99096961  0.50896113  0.44785872     0.72510
O830        O  0.00339825  0.77371083  0.40146717    -0.59170
O831        O  0.04944836  0.76597163  0.36260589    -0.51150
C832        C  0.02581710  0.79003177  0.38085211     0.74310
O833        O  0.91287362  0.67490259  0.43738290    -0.70570
O834        O  0.92235533  0.60561939  0.45350755    -0.49240
C835        C  0.91933736  0.64818962  0.45882161     0.75690
O836        O  0.13349517  0.61450067  0.39651320    -0.65900
O837        O  0.12698487  0.67235711  0.36274201    -0.53090
C838        C  0.14983975  0.64306358  0.37915636     0.74070
Zr839      Zr  0.06211877  0.58702167  0.40959545     2.77540
O840        O  0.09759275  0.59978515  0.45588137    -0.96640
O841        O  0.11185091  0.51886385  0.40167859    -0.77470
Zr842      Zr  0.98058336  0.70087296  0.41815000     2.70070
O843        O  0.02677635  0.70329886  0.46141401    -0.78710
O844        O  0.94226710  0.76734368  0.44071429    -0.97800
Zr845      Zr  0.04681650  0.68589155  0.35112807     2.21500
Zr846      Zr  0.93798520  0.58310834  0.40236294     2.11130
O847        O  0.99514432  0.62090443  0.42721911    -2.46480
O848        O  0.05121218  0.66890893  0.40182537    -0.78510
O849        O  0.00778248  0.55555583  0.38187929    -0.70700
O850        O  0.97459553  0.71389475  0.36794741    -2.31660
O851        O  0.06343249  0.60536394  0.35853513    -2.27870
O852        O  0.92154762  0.66301109  0.39575329    -0.72460
H853        H  0.91271982  0.57753503  0.34210833     0.79540
H854        H  0.96635865  0.74478675  0.36205167     0.80620
H855        H  0.99822898  0.61448828  0.44758159     0.82850
H856        H  0.09240220  0.59550795  0.35047727     0.80460
H857        H  0.87265273  0.74864259  0.37276003     0.43490
H858        H  0.92739374  0.78604312  0.42493190     0.42460
H859        H  0.04114729  0.73216866  0.45961837     0.42140
H860        H  0.10117901  0.63272944  0.45591325     0.40070
H861        H  0.10807054  0.51250583  0.38094556     0.43210
H862        H  0.09569735  0.52822732  0.31655737     0.37990
H863        H  0.94817720  0.58558433  0.28380709     0.44110
H864        H  0.85893898  0.65181849  0.30044978     0.40520
H865        H  0.07395210  0.59554509  0.47038990     0.45440
H866        H  0.06152194  0.51122770  0.29416482     0.44160
H867        H  0.83897553  0.69843532  0.31264042     0.44300
H868        H  0.96589949  0.78551905  0.44848540     0.44660
O869        O  0.52672762  0.02558270  0.29072791    -0.74210
O870        O  0.55348648  0.09491683  0.29765325    -0.53120
C871        C  0.55268189  0.05734492  0.28410479     0.79520
O872        O  0.33456795  0.11902867  0.38410124    -0.58810
O873        O  0.32767680  0.04714897  0.39750353    -0.51840
C874        C  0.31002947  0.08733423  0.39094827     0.71530
O875        O  0.40953180  0.17069239  0.30986796    -0.73370
O876        O  0.47371735  0.14424606  0.29085693    -0.53940
C877        C  0.43091829  0.15506955  0.28819308     0.77530
O878        O  0.42945844  0.94572016  0.34142754    -0.58520
O879        O  0.42377255  0.94774174  0.38979182    -0.51640
C880        C  0.43128890  0.92552092  0.36589502     0.74120
Zr881      Zr  0.47185756  0.00873110  0.32958491     2.54710
O882        O  0.43323161  0.99218524  0.28514286    -0.79080
O883        O  0.52551377  0.94200845  0.32713649    -0.92500
Zr884      Zr  0.38338740  0.11509860  0.34285577     2.64680
O885        O  0.33423729  0.07375232  0.31251838    -0.97450
O886        O  0.32135883  0.17086169  0.33003362    -0.79520
O887        O  0.45169781  0.08530406  0.32116512    -0.82870
O888        O  0.40139350  0.03635921  0.35178774    -2.17580
O889        O  0.50357495  0.97918183  0.44173439    -0.66260
O890        O  0.42724807  0.97519592  0.43798527    -0.50830
C891        C  0.46507478  0.96395487  0.45006023     0.72510
O892        O  0.49179500  0.21558212  0.39349924    -0.59170
O893        O  0.50804999  0.20988999  0.34596515    -0.51150
C894        C  0.49840871  0.23355954  0.36884093     0.74310
O895        O  0.39369801  0.13171909  0.43701500    -0.70570
O896        O  0.40622775  0.06301152  0.45431228    -0.49240
C897        C  0.40419936  0.10627233  0.45847094     0.75690
O898        O  0.60202474  0.06515299  0.38682382    -0.65900
O899        O  0.59103364  0.12277440  0.35292102    -0.53090
C900        C  0.61569429  0.09626798  0.37019783     0.74070
Zr901      Zr  0.53413824  0.03276870  0.40232210     2.77540
O902        O  0.57925542  0.04443787  0.44510899    -0.96640
O903        O  0.58066847  0.96362612  0.39147829    -0.77470
Zr904      Zr  0.45707826  0.14899859  0.40911592     2.70070
O905        O  0.50515212  0.15937342  0.45059756    -0.78710
O906        O  0.41780811  0.22231598  0.42004897    -0.97800
Zr907      Zr  0.51171656  0.12631134  0.33827238     2.21500
Zr908      Zr  0.40964250  0.03084037  0.40354517     2.11130
O909        O  0.47116619  0.07053852  0.42213680    -2.46480
O910        O  0.52239870  0.11262875  0.38913490    -0.78510
O911        O  0.47593738  0.99825217  0.38064318    -0.70700
O912        O  0.44289771  0.15745134  0.35927870    -2.31660
O913        O  0.52920035  0.04702552  0.35111676    -2.27870
O914        O  0.39556644  0.11001756  0.39294324    -0.72460
H915        H  0.37708759  0.01891479  0.34579715     0.79540
H916        H  0.43383624  0.18897735  0.35536045     0.80620
H917        H  0.47871941  0.06713484  0.44230514     0.82850
H918        H  0.55771727  0.03614611  0.34283868     0.80460
H919        H  0.32460957  0.19619517  0.34336930     0.43490
H920        H  0.38557559  0.21697888  0.42202328     0.42460
H921        H  0.53358987  0.14080355  0.44656648     0.42140
H922        H  0.55708470  0.05146482  0.46058486     0.40070
H923        H  0.56269017  0.93885357  0.39815253     0.43210
H924        H  0.52629724  0.92870248  0.34686028     0.37990
H925        H  0.40150633  0.98962192  0.29081064     0.44110
H926        H  0.35354012  0.06243588  0.29646110     0.40520
H927        H  0.59337819  0.01388975  0.45026752     0.45440
H928        H  0.55535122  0.95408845  0.32491517     0.44160
H929        H  0.31211156  0.09671934  0.30366086     0.44300
H930        H  0.42800292  0.22970485  0.43962141     0.44660
O931        O  0.56073378  0.52630719  0.29274197    -0.74210
O932        O  0.58739747  0.59586092  0.29920088    -0.53120
C933        C  0.58682201  0.55762492  0.28636399     0.79520
O934        O  0.35061622  0.57012633  0.34456189    -0.58810
O935        O  0.35321774  0.55435602  0.39202769    -0.51840
C936        C  0.33204973  0.56983082  0.36931135     0.71530
O937        O  0.43943993  0.63537150  0.28375055    -0.73370
O938        O  0.51596254  0.62947942  0.28389614    -0.53940
C939        C  0.47740204  0.62755393  0.27102772     0.77530
O940        O  0.47533097  0.44202152  0.34504323    -0.58520
O941        O  0.43325237  0.45371436  0.38572470    -0.51640
C942        C  0.45207493  0.42792961  0.36583800     0.74120
Zr943      Zr  0.51036151  0.50868155  0.33250624     2.54710
O944        O  0.49064031  0.46665037  0.29020419    -0.79080
O945        O  0.57568295  0.45559797  0.34316911    -0.92500
Zr946      Zr  0.41387222  0.61182638  0.33110735     2.64680
O947        O  0.35626557  0.60678703  0.29388851    -0.97450
O948        O  0.37038285  0.68402181  0.33892837    -0.79520
O949        O  0.48683626  0.58258793  0.31837164    -0.82870
O950        O  0.43505690  0.53525421  0.34595996    -2.17580
O951        O  0.52733173  0.49448022  0.44300912    -0.66260
O952        O  0.45238642  0.48576122  0.43589330    -0.50830
C953        C  0.48932024  0.47722348  0.44960015     0.72510
O954        O  0.51790724  0.71678182  0.38764609    -0.59170
O955        O  0.52775178  0.71596223  0.34004475    -0.51150
C956        C  0.51671777  0.73775863  0.36344768     0.74310
O957        O  0.40586592  0.63705731  0.42820213    -0.70570
O958        O  0.41968088  0.56900012  0.44700152    -0.49240
C959        C  0.41478492  0.61230648  0.45035767     0.75690
O960        O  0.62692134  0.57901844  0.38958834    -0.65900
O961        O  0.61737326  0.63193977  0.35276663    -0.53090
C962        C  0.64155564  0.60755589  0.37141361     0.74070
Zr963      Zr  0.55764306  0.54881342  0.40514585     2.77540
O964        O  0.58784007  0.57760786  0.44952971    -0.96640
O965        O  0.61354255  0.48389298  0.40480900    -0.77470
Zr966      Zr  0.46870108  0.65904356  0.40063489     2.70070
O967        O  0.49918919  0.68476731  0.44566374    -0.78710
O968        O  0.41920411  0.72886239  0.40092186    -0.97800
Zr969      Zr  0.53952647  0.63112985  0.33575891     2.21500
Zr970      Zr  0.43355085  0.53611471  0.39785595     2.11130
O971        O  0.48822894  0.58314378  0.41756923    -2.46480
O972        O  0.54049533  0.62556622  0.38747319    -0.78510
O973        O  0.50605645  0.50434496  0.38337479    -0.70700
O974        O  0.46531196  0.66125650  0.34935555    -2.31660
O975        O  0.56068487  0.55513278  0.35380427    -2.27870
O976        O  0.41390842  0.61283228  0.38191491    -0.72460
H977        H  0.41447059  0.51472276  0.33844842     0.79540
H978        H  0.45571632  0.69099894  0.34169310     0.80620
H979        H  0.49229718  0.58282375  0.43812346     0.82850
H980        H  0.59058357  0.54492077  0.34737598     0.80460
H981        H  0.37339051  0.70142624  0.32073363     0.43490
H982        H  0.38833576  0.71895326  0.39941131     0.42460
H983        H  0.52904176  0.66750334  0.44766437     0.42140
H984        H  0.57125978  0.56338925  0.46522515     0.40070
H985        H  0.59560689  0.45720878  0.40453713     0.43210
H986        H  0.59892209  0.46317528  0.32910271     0.37990
H987        H  0.51643984  0.44371069  0.28764015     0.44110
H988        H  0.37005605  0.58649087  0.27902205     0.40520
H989        H  0.61887537  0.56278035  0.45098768     0.45440
H990        H  0.56666305  0.42579849  0.33696790     0.44160
H991        H  0.35231748  0.63711632  0.28447164     0.44300
H992        H  0.42134242  0.74006635  0.42084590     0.44660
C993        C  0.45683455  0.85275293  0.33920602     0.24670
C994        C  0.44891058  0.87577604  0.36567126    -0.23430
C995        C  0.46511311  0.85297955  0.39090766     0.19580
C996        C  0.48927974  0.80990152  0.38990395     0.24620
C997        C  0.49748614  0.78698344  0.36346267    -0.23380
C998        C  0.48052822  0.80936235  0.33818157     0.19520
F999        F  0.48588403  0.78893529  0.31228146    -0.13340
F1000       F  0.44177210  0.87218449  0.31386438    -0.15700
F1001       F  0.50449097  0.79062595  0.41526022    -0.15700
F1002       F  0.45807836  0.87264467  0.41680970    -0.13340
C1003       C  0.48308905  0.30919355  0.39336254     0.24670
C1004       C  0.48807164  0.28418841  0.36746240    -0.23430
C1005       C  0.47392759  0.30655521  0.34156781     0.19580
C1006       C  0.45706760  0.35242352  0.34146610     0.24620
C1007       C  0.45330233  0.37742693  0.36726935    -0.23380
C1008       C  0.46514405  0.35461967  0.39319701     0.19520
F1009       F  0.46185788  0.37718384  0.41837703    -0.13340
F1010       F  0.49600789  0.28992598  0.41918838    -0.15700
F1011       F  0.44555596  0.37302979  0.31579693    -0.15700
F1012       F  0.47562167  0.28400709  0.31628182    -0.13340
C1013       C  0.71921543  0.57000063  0.37425001     0.24670
C1014       C  0.69056852  0.61028550  0.37175101    -0.23430
C1015       C  0.70920559  0.65217891  0.37074752     0.19580
C1016       C  0.75591331  0.65377247  0.37252019     0.24620
C1017       C  0.78448313  0.61344082  0.37523185    -0.23380
C1018       C  0.76581288  0.57159607  0.37609777     0.19520
F1019       F  0.79274149  0.53224613  0.37767065    -0.13340
F1020       F  0.70204761  0.52891481  0.37418007    -0.15700
F1021       F  0.77324055  0.69478537  0.37227039    -0.15700
F1022       F  0.68221287  0.69146402  0.36901858    -0.13340
C1023       C  0.22652014  0.63067694  0.40011205     0.24670
C1024       C  0.19864385  0.63605727  0.37561330    -0.23430
C1025       C  0.21505329  0.62071052  0.34889768     0.19580
C1026       C  0.25786809  0.59792604  0.34696613     0.24620
C1027       C  0.28538438  0.59071444  0.37173282    -0.23380
C1028       C  0.26970028  0.60859750  0.39819430     0.19520
F1029       F  0.29601121  0.60485094  0.42226722    -0.13340
F1030       F  0.21098071  0.64504766  0.42617993    -0.15700
F1031       F  0.27145750  0.58126988  0.32102461    -0.15700
F1032       F  0.18795602  0.62388681  0.32515782    -0.13340
C1033       C  0.68003616  0.13975457  0.38356556     0.24670
C1034       C  0.66399563  0.10077042  0.37192659    -0.23430
C1035       C  0.69400896  0.06263785  0.36662401     0.19580
C1036       C  0.73981379  0.06350998  0.37274265     0.24620
C1037       C  0.75595228  0.10246495  0.38434843    -0.23380
C1038       C  0.72593396  0.14067702  0.38963472     0.19520
F1039       F  0.74124473  0.17875644  0.40071620    -0.13340
F1040       F  0.65109599  0.17607605  0.39001783    -0.15700
F1041       F  0.76867910  0.02721240  0.36612767    -0.15700
F1042       F  0.67875312  0.02461264  0.35542783    -0.13340
C1043       C  0.23280361  0.06977560  0.37674983     0.24670
C1044       C  0.26097306  0.09909977  0.38979640    -0.23430
C1045       C  0.24313239  0.14319455  0.39715532     0.19580
C1046       C  0.19757714  0.15716085  0.39213977     0.24620
C1047       C  0.16946703  0.12753422  0.37936199    -0.23380
C1048       C  0.18751779  0.08383862  0.37161427     0.19520
F1049       F  0.16045097  0.05394542  0.36012134    -0.13340
F1050       F  0.24933348  0.02795699  0.36827883    -0.15700
F1051       F  0.18040567  0.19838598  0.40126417    -0.15700
F1052       F  0.26969619  0.17243295  0.40981157    -0.13340
C1053       C  0.00100611  0.91393199  0.39514529     0.24670
C1054       C  0.96638151  0.92555452  0.37477910    -0.23430
C1055       C  0.95882796  0.89422035  0.35318154     0.19580
C1056       C  0.98296777  0.85145122  0.35326941     0.24620
C1057       C  0.01469929  0.83875281  0.37518882    -0.23380
C1058       C  0.02359097  0.87048449  0.39605381     0.19520
F1059       F  0.05374334  0.85913418  0.41756651    -0.13340
F1060       F  0.01468977  0.94514008  0.41340685    -0.15700
F1061       F  0.97295254  0.82117759  0.33303766    -0.15700
F1062       F  0.92753688  0.90475315  0.33220112    -0.13340
C1063       C  0.00356859  0.35466485  0.35492935     0.24670
C1064       C  0.99297765  0.33414485  0.38137493    -0.23430
C1065       C  0.97192110  0.36198074  0.40276321     0.19580
C1066       C  0.96074211  0.40823751  0.39762450     0.24620
C1067       C  0.97223841  0.42904942  0.37150595    -0.23380
C1068       C  0.99364958  0.40137651  0.35013504     0.19520
F1069       F  0.00456900  0.41922858  0.32420273    -0.13340
F1070       F  0.02236820  0.32948535  0.33319275    -0.15700
F1071       F  0.93884432  0.43252651  0.41860830    -0.15700
F1072       F  0.96160600  0.34459251  0.42892811    -0.13340
C1073       C  0.45568013  0.85792210  0.49836185     0.24670
C1074       C  0.41741256  0.87252531  0.51515285    -0.23430
C1075       C  0.39921884  0.91746440  0.51080952     0.19580
C1076       C  0.42029506  0.94786746  0.49317826     0.24620
C1077       C  0.45812635  0.93411431  0.47608694    -0.23380
C1078       C  0.47554572  0.88834145  0.47891693     0.19520
F1079       F  0.51158330  0.87296957  0.46296797    -0.13340
F1080       F  0.47501288  0.81498558  0.50128632    -0.15700
F1081       F  0.40175931  0.99134778  0.49169763    -0.15700
F1082       F  0.36081107  0.93282706  0.52455138    -0.13340
C1083       C  0.48997321  0.64926734  0.51243853     0.24670
C1084       C  0.47136964  0.69407190  0.51679923    -0.23430
C1085       C  0.43289482  0.70915593  0.50020552     0.19580
C1086       C  0.41278709  0.68085590  0.48102394     0.24620
C1087       C  0.43052287  0.63594044  0.47673702    -0.23380
C1088       C  0.46942582  0.62027652  0.49305899     0.19520
F1089       F  0.48867296  0.57756110  0.48974234    -0.13340
F1090       F  0.52817966  0.63349812  0.52662510    -0.15700
F1091       F  0.37566470  0.69807786  0.46609229    -0.15700
F1092       F  0.41330477  0.75177013  0.50310849    -0.13340
C1093       C  0.47456032  0.37149926  0.49573978     0.24670
C1094       C  0.44112038  0.38874845  0.51525076    -0.23430
C1095       C  0.42728883  0.43533721  0.51326554     0.19580
C1096       C  0.44820480  0.46431137  0.49451082     0.24620
C1097       C  0.48254537  0.44801611  0.47556514    -0.23380
C1098       C  0.49516103  0.40092727  0.47620150     0.19520
F1099       F  0.52700752  0.38334085  0.45773863    -0.13340
F1100       F  0.48862517  0.32671154  0.49621046    -0.15700
F1101       F  0.43287651  0.50879257  0.49382438    -0.15700
F1102       F  0.39347449  0.45342732  0.53021691    -0.13340
C1103       C  0.41108958  0.17552307  0.48781775     0.24670
C1104       C  0.42511754  0.12939511  0.48381499    -0.23430
C1105       C  0.46503429  0.11224693  0.49866514     0.19580
C1106       C  0.49042941  0.14110318  0.51581174     0.24620
C1107       C  0.47666493  0.18788329  0.51861946    -0.23380
C1108       C  0.43687591  0.20410169  0.50361331     0.19520
F1109       F  0.42147332  0.24851600  0.50516756    -0.13340
F1110       F  0.37192640  0.19381453  0.47567795    -0.15700
F1111       F  0.52857047  0.12322922  0.52923170    -0.15700
F1112       F  0.48043785  0.06810711  0.49594562    -0.13340
C1113       C  0.51265172  0.54664089  0.65184495     0.24670
C1114       C  0.53318641  0.53049572  0.62623721    -0.23430
C1115       C  0.52832951  0.55918529  0.60143388     0.19580
C1116       C  0.50352069  0.60177565  0.60216718     0.24620
C1117       C  0.48318711  0.61792817  0.62758625    -0.23380
C1118       C  0.48850179  0.58979930  0.65256513     0.19520
F1119       F  0.47053137  0.60447148  0.67795128    -0.13340
F1120       F  0.51423863  0.51998194  0.67596844    -0.15700
F1121       F  0.50161682  0.62869074  0.57831970    -0.15700
F1122       F  0.54739689  0.54575809  0.57608368    -0.13340
C1123       C  0.45771167  0.10153699  0.65093325     0.24670
C1124       C  0.46670562  0.12911836  0.62700499    -0.23430
C1125       C  0.49048150  0.10957918  0.60363490     0.19580
C1126       C  0.50393466  0.06326922  0.60363850     0.24620
C1127       C  0.49495829  0.03576035  0.62747468    -0.23380
C1128       C  0.47165852  0.05515041  0.65113112     0.19520
F1129       F  0.46087361  0.02883352  0.67389084    -0.13340
F1130       F  0.43603881  0.11975553  0.67426234    -0.15700
F1131       F  0.52632506  0.04524322  0.58050314    -0.15700
F1132       F  0.50391458  0.13613769  0.58187479    -0.13340
C1133       C  0.97429575  0.97279578  0.50197108     0.24670
C1134       C  0.96670413  0.96225781  0.47354720    -0.23430
C1135       C  0.94219389  0.92397785  0.46801304     0.19580
C1136       C  0.92601961  0.89743794  0.49089987     0.24620
C1137       C  0.93028274  0.91126487  0.51960846    -0.23380
C1138       C  0.95260834  0.95096053  0.52391362     0.19520
F1139       F  0.95171049  0.97136776  0.54940443    -0.13340
F1140       F  0.99733926  0.00895697  0.50845467    -0.15700
F1141       F  0.90155879  0.86220390  0.48468101    -0.15700
F1142       F  0.93100756  0.91425860  0.44055912    -0.13340
C1143       C  0.94869330  0.74160908  0.50702253     0.24670
C1144       C  0.98449687  0.72307924  0.52458906    -0.23430
C1145       C  0.99507161  0.67558941  0.52331936     0.19580
C1146       C  0.97255215  0.64884434  0.50333663     0.24620
C1147       C  0.93647212  0.66862322  0.48596541    -0.23380
C1148       C  0.92310694  0.71457692  0.49020101     0.19520
F1149       F  0.88527591  0.73415632  0.47703897    -0.13340
F1150       F  0.93545216  0.78635642  0.50831591    -0.15700
F1151       F  0.98595485  0.60409588  0.50114021    -0.15700
F1152       F  0.02632789  0.65505975  0.54168350    -0.13340
C1153       C  0.75532415  0.80615688  0.62033498     0.24670
C1154       C  0.77706040  0.84551798  0.61467679    -0.23430
C1155       C  0.75081207  0.88734750  0.61120815     0.19580
C1156       C  0.70371044  0.88963554  0.61349519     0.24620
C1157       C  0.68222297  0.85020760  0.61924398    -0.23380
C1158       C  0.70841715  0.80850681  0.62262620     0.19520
F1159       F  0.68838284  0.76991366  0.62866803    -0.13340
F1160       F  0.77956446  0.76574803  0.62504185    -0.15700
F1161       F  0.67912052  0.92992917  0.60921129    -0.15700
F1162       F  0.77082256  0.92601030  0.60537425    -0.13340
C1163       C  0.24427963  0.81543769  0.64049138     0.24670
C1164       C  0.26898425  0.82376747  0.61538966    -0.23430
C1165       C  0.24860394  0.85351884  0.59429485     0.19580
C1166       C  0.20462481  0.87403545  0.59807211     0.24620
C1167       C  0.18021237  0.86645704  0.62351382    -0.23380
C1168       C  0.20056912  0.83642018  0.64448880     0.19520
F1169       F  0.17781262  0.82664737  0.66871533    -0.13340
F1170       F  0.26371529  0.78885682  0.66202277    -0.15700
F1171       F  0.18642711  0.90265726  0.57716636    -0.15700
F1172       F  0.27251839  0.86508798  0.57083602    -0.13340
C1173       C  0.94199396  0.48423895  0.48749812     0.24670
C1174       C  0.98145825  0.47413988  0.47108814    -0.23430
C1175       C  0.00032065  0.42853573  0.47235147     0.19580
C1176       C  0.98205998  0.39576840  0.49114825     0.24620
C1177       C  0.94367480  0.40755673  0.50851378    -0.23380
C1178       C  0.92262981  0.45154824  0.50442533     0.19520
F1179       F  0.88432541  0.46450443  0.51904264    -0.13340
F1180       F  0.92118738  0.52686229  0.48707585    -0.15700
F1181       F  0.00290640  0.35328509  0.49293811    -0.15700
F1182       F  0.03601745  0.41556344  0.45543776    -0.13340
C1183       C  0.96233017  0.13826030  0.50690147     0.24670
C1184       C  0.92380847  0.16019520  0.49293983    -0.23430
C1185       C  0.91584823  0.20693726  0.49695972     0.19580
C1186       C  0.94854861  0.23205399  0.50909592     0.24620
C1187       C  0.98708267  0.21136596  0.52336610    -0.23380
C1188       C  0.99264635  0.16337994  0.52286363     0.19520
F1189       F  0.02730212  0.14081395  0.53754439    -0.13340
F1190       F  0.97060349  0.09281293  0.50522658    -0.15700
F1191       F  0.94108523  0.27760056  0.50807759    -0.15700
F1192       F  0.87610197  0.22895653  0.48830470    -0.13340
C1193       C  0.97740938  0.57678527  0.61795325     0.24670
C1194       C  0.02403234  0.56279564  0.61729636    -0.23430
C1195       C  0.05544147  0.59501432  0.61570515     0.19580
C1196       C  0.04038429  0.64092384  0.61541422     0.24620
C1197       C  0.99374618  0.65484293  0.61690004    -0.23380
C1198       C  0.96240126  0.62254006  0.61772675     0.19520
F1199       F  0.91763159  0.63517931  0.61993953    -0.13340
F1200       F  0.94622263  0.54587403  0.61902102    -0.15700
F1201       F  0.07137111  0.67204798  0.61423068    -0.15700
F1202       F  0.10019491  0.58211372  0.61386728    -0.13340
C1203       C  0.97543650  0.08607065  0.65687847     0.24670
C1204       C  0.00728665  0.06341590  0.63873903    -0.23430
C1205       C  0.02732295  0.08783379  0.61679156     0.19580
C1206       C  0.01585037  0.13423727  0.61308793     0.24620
C1207       C  0.98315843  0.15672609  0.63064994    -0.23380
C1208       C  0.96374606  0.13261305  0.65301817     0.19520
F1209       F  0.93384529  0.15430593  0.67119628    -0.13340
F1210       F  0.95408644  0.06264696  0.67733174    -0.15700
F1211       F  0.03841826  0.15787299  0.59337719    -0.15700
F1212       F  0.05743669  0.06637196  0.59861916    -0.13340
C1213       C  0.73138780  0.37229459  0.59459184     0.24670
C1214       C  0.71131436  0.33790985  0.60947797    -0.23430
C1215       C  0.73738911  0.30423160  0.62505877     0.19580
C1216       C  0.78384043  0.30522659  0.62608970     0.24620
C1217       C  0.80393373  0.34003294  0.61166041    -0.23380
C1218       C  0.77797998  0.37333639  0.59566503     0.19520
F1219       F  0.79783805  0.40661753  0.58131320    -0.13340
F1220       F  0.70588955  0.40465852  0.57936754    -0.15700
F1221       F  0.80910023  0.27335838  0.64188337    -0.15700
F1222       F  0.71758725  0.27148222  0.63999974    -0.13340
C1223       C  0.23135491  0.32588098  0.62463689     0.24670
C1224       C  0.21167299  0.36859434  0.61566533    -0.23430
C1225       C  0.23854782  0.40246284  0.60647606     0.19580
C1226       C  0.28527723  0.39308767  0.60570760     0.24620
C1227       C  0.30473730  0.34968958  0.61385692    -0.23380
C1228       C  0.27760534  0.31636919  0.62355556     0.19520
F1229       F  0.29600555  0.27510459  0.63282108    -0.13340
F1230       F  0.20542230  0.29315205  0.63422040    -0.15700
F1231       F  0.31141935  0.42574467  0.59636231    -0.15700
F1232       F  0.21955993  0.44349500  0.59728262    -0.13340
C1233       C  0.65368274  0.85941313  0.72402408     0.24670
C1234       C  0.61856231  0.83018817  0.72810502    -0.23430
C1235       C  0.61152946  0.81334680  0.75589188     0.19580
C1236       C  0.63820622  0.82578520  0.77897906     0.24620
C1237       C  0.67270201  0.85564225  0.77502510    -0.23380
C1238       C  0.68005465  0.87220741  0.74721792     0.19520
F1239       F  0.71449333  0.89851784  0.74215441    -0.13340
F1240       F  0.66289161  0.87542024  0.69726683    -0.15700
F1241       F  0.63151023  0.80683495  0.80526862    -0.15700
F1242       F  0.57844755  0.78540733  0.76091565    -0.13340
C1243       C  0.84977082  0.85059832  0.75582771     0.24670
C1244       C  0.87055380  0.81017110  0.76802392    -0.23430
C1245       C  0.91771969  0.80184175  0.76377868     0.19580
C1246       C  0.94345591  0.83391364  0.74988280     0.24620
C1247       C  0.92303675  0.87561164  0.73913646    -0.23380
C1248       C  0.87560866  0.88344497  0.74296910     0.19520
F1249       F  0.85369502  0.92340803  0.73434446    -0.13340
F1250       F  0.80432207  0.85923820  0.75688901    -0.15700
F1251       F  0.98847848  0.82372793  0.74689195    -0.15700
F1252       F  0.93925095  0.76210181  0.77324422    -0.13340
C1253       C  0.69196870  0.24192144  0.76221625     0.24670
C1254       C  0.72996664  0.26768161  0.76298141    -0.23430
C1255       C  0.73505719  0.29834739  0.73994821     0.19580
C1256       C  0.70148269  0.30565485  0.71824182     0.24620
C1257       C  0.66183084  0.28209243  0.71863319    -0.23380
C1258       C  0.65868571  0.24884188  0.74046706     0.19520
F1259       F  0.62198569  0.22460114  0.74192206    -0.13340
F1260       F  0.68574296  0.21120045  0.78357213    -0.15700
F1261       F  0.70744667  0.33693860  0.69720312    -0.15700
F1262       F  0.77060227  0.32422889  0.73969167    -0.13340
C1263       C  0.93188991  0.45744058  0.73797135     0.24670
C1264       C  0.96965883  0.42941943  0.72916002    -0.23430
C1265       C  0.97844388  0.38690031  0.74321644     0.19580
C1266       C  0.94940362  0.37237934  0.76480454     0.24620
C1267       C  0.91044966  0.39978315  0.77267678    -0.23380
C1268       C  0.90268279  0.44292751  0.75908764     0.19520
F1269       F  0.86528433  0.47071223  0.76496003    -0.13340
F1270       F  0.92130993  0.49811021  0.72457328    -0.15700
F1271       F  0.95884968  0.33090204  0.77732613    -0.15700
F1272       F  0.01270701  0.35747186  0.73430217    -0.13340
C1273       C  0.76273674  0.61696135  0.84877331     0.24670
C1274       C  0.76170732  0.64160161  0.87437983    -0.23430
C1275       C  0.74150512  0.62343247  0.89889247     0.19580
C1276       C  0.72436299  0.58052048  0.89798342     0.24620
C1277       C  0.72910075  0.55401625  0.87300129    -0.23380
C1278       C  0.74683056  0.57392640  0.84802403     0.19520
F1279       F  0.75004521  0.55152320  0.82270436    -0.13340
F1280       F  0.78059724  0.63405071  0.82444028    -0.15700
F1281       F  0.70236389  0.56537807  0.92130255    -0.15700
F1282       F  0.73715184  0.64778201  0.92343453    -0.13340
C1283       C  0.85866688  0.12261794  0.89574803     0.24670
C1284       C  0.85093666  0.14565174  0.86903025    -0.23430
C1285       C  0.84909557  0.11982222  0.84396844     0.19580
C1286       C  0.85054200  0.07232647  0.84587917     0.24620
C1287       C  0.85409326  0.04949587  0.87291414    -0.23380
C1288       C  0.86034752  0.07513421  0.89766459     0.19520
F1289       F  0.86431587  0.05469528  0.92407573    -0.13340
F1290       F  0.86217224  0.14631339  0.92037910    -0.15700
F1291       F  0.84631705  0.04875242  0.82126501    -0.15700
F1292       F  0.84180416  0.14057414  0.81785366    -0.13340
C1293       C  0.15243272  0.90467435  0.77236756     0.24670
C1294       C  0.19315332  0.87752490  0.77176847    -0.23430
C1295       C  0.19600542  0.83920588  0.75349991     0.19580
C1296       C  0.15858021  0.82711565  0.73769150     0.24620
C1297       C  0.11758853  0.85381470  0.73868617    -0.23380
C1298       C  0.11512650  0.89287354  0.75627082     0.19520
F1299       F  0.07622234  0.92026477  0.75751402    -0.13340
F1300       F  0.14778994  0.94099745  0.78993848    -0.15700
F1301       F  0.16289186  0.78998035  0.72081484    -0.15700
F1302       F  0.23493756  0.81184550  0.75214969    -0.13340
C1303       C  0.35855764  0.85622118  0.75658206     0.24670
C1304       C  0.37764649  0.81585860  0.76983378    -0.23430
C1305       C  0.42374566  0.80308705  0.76414865     0.19580
C1306       C  0.44975065  0.83010672  0.74646689     0.24620
C1307       C  0.43083767  0.87105079  0.73385656    -0.23380
C1308       C  0.38502155  0.88405806  0.74000820     0.19520
F1309       F  0.36527501  0.92405166  0.72962934    -0.13340
F1310       F  0.31433657  0.86991215  0.76025684    -0.15700
F1311       F  0.49330276  0.81553932  0.74134195    -0.15700
F1312       F  0.44420275  0.76467498  0.77633990    -0.13340
C1313       C  0.58659129  0.80937064  0.90250632     0.24670
C1314       C  0.61282882  0.82464330  0.87954605    -0.23430
C1315       C  0.59369427  0.86010110  0.86173104     0.19580
C1316       C  0.54951928  0.87918674  0.86641435     0.24620
C1317       C  0.52345423  0.86422945  0.88953744    -0.23380
C1318       C  0.54260146  0.82891698  0.90745917     0.19520
F1319       F  0.51819397  0.81212629  0.92919550    -0.13340
F1320       F  0.60410106  0.77591749  0.92066090    -0.15700
F1321       F  0.53242366  0.91318300  0.84852350    -0.15700
F1322       F  0.61885876  0.87873650  0.84108530    -0.13340
C1323       C  0.08891424  0.86794642  0.85130752     0.24670
C1324       C  0.11361007  0.84598110  0.87397134    -0.23430
C1325       C  0.09146280  0.83993151  0.90054393     0.19580
C1326       C  0.04584533  0.85502489  0.90424149     0.24620
C1327       C  0.02102953  0.87686705  0.88152209    -0.23380
C1328       C  0.04331111  0.88320336  0.85498121     0.19520
F1329       F  0.02016880  0.90302994  0.83214628    -0.13340
F1330       F  0.10935419  0.87617056  0.82596475    -0.15700
F1331       F  0.02535602  0.84605256  0.92953776    -0.15700
F1332       F  0.11474052  0.82017323  0.92334430    -0.13340
C1333       C  0.19311050  0.35452485  0.72086701     0.24670
C1334       C  0.14575272  0.36090345  0.72393004    -0.23430
C1335       C  0.12860210  0.38902961  0.74603660     0.19580
C1336       C  0.15726122  0.41032235  0.76437284     0.24620
C1337       C  0.20453271  0.40168850  0.76293013    -0.23380
C1338       C  0.22228469  0.37364205  0.74065974     0.19520
F1339       F  0.26755717  0.36501430  0.73785584    -0.13340
F1340       F  0.21102417  0.33137502  0.69802543    -0.15700
F1341       F  0.13835472  0.44081394  0.78324275    -0.15700
F1342       F  0.08354715  0.39939127  0.74836641    -0.13340
C1343       C  0.43951477  0.40469661  0.73553334     0.24670
C1344       C  0.48206894  0.38167358  0.73182524    -0.23430
C1345       C  0.49249792  0.34075208  0.74766790     0.19580
C1346       C  0.46028768  0.32382212  0.76665750     0.24620
C1347       C  0.41648051  0.34586132  0.76827343    -0.23380
C1348       C  0.40636496  0.38509977  0.75091444     0.19520
F1349       F  0.36413282  0.40665677  0.75024370    -0.13340
F1350       F  0.42917779  0.44623745  0.72320967    -0.15700
F1351       F  0.47204562  0.28688316  0.78357615    -0.15700
F1352       F  0.53325904  0.31716101  0.74465102    -0.13340
C1353       C  0.54363550  0.40980002  0.84094502     0.24670
C1354       C  0.56571959  0.41485850  0.86781702    -0.23430
C1355       C  0.53940860  0.43172460  0.89103524     0.19580
C1356       C  0.49229216  0.43818821  0.88840351     0.24620
C1357       C  0.47018605  0.42768459  0.86262855    -0.23380
C1358       C  0.49648082  0.41599510  0.83849273     0.19520
F1359       F  0.47647250  0.40580192  0.81331383    -0.13340
F1360       F  0.56727349  0.39644099  0.81714052    -0.15700
F1361       F  0.46777748  0.45095903  0.91198509    -0.15700
F1362       F  0.55867311  0.43895747  0.91696690    -0.13340
C1363       C  0.01015059  0.32039177  0.90351735     0.24670
C1364       C  0.98722833  0.29933694  0.88094140    -0.23430
C1365       C  0.01381524  0.27040942  0.86268828     0.19580
C1366       C  0.06136055  0.26533235  0.86567361     0.24620
C1367       C  0.08384464  0.28822766  0.88731276    -0.23380
C1368       C  0.05732988  0.31469488  0.90659856     0.19520
F1369       F  0.07742711  0.33899358  0.92684803    -0.13340
F1370       F  0.98748945  0.34900018  0.92206307    -0.15700
F1371       F  0.08581206  0.23951476  0.84644783    -0.15700
F1372       F  0.99417303  0.24818818  0.84125756    -0.13340
C1373       C  0.25828465  0.59071106  0.83809989     0.24670
C1374       C  0.29284037  0.56013343  0.84889173    -0.23430
C1375       C  0.33265822  0.57551133  0.85955444     0.19580
C1376       C  0.33687903  0.62166870  0.86139213     0.24620
C1377       C  0.30083569  0.65312877  0.85273534    -0.23380
C1378       C  0.26232599  0.63718997  0.83973799     0.19520
F1379       F  0.22747145  0.66622282  0.83022577    -0.13340
F1380       F  0.22004329  0.57552364  0.82712496    -0.15700
F1381       F  0.37553947  0.63523503  0.87285987    -0.15700
F1382       F  0.36629284  0.54569020  0.86997314    -0.13340
C1383       C  0.35135135  0.13358217  0.90009528     0.24670
C1384       C  0.30499716  0.14886552  0.90086288    -0.23430
C1385       C  0.27339906  0.11743089  0.90623694     0.19580
C1386       C  0.28737363  0.07108413  0.90732989     0.24620
C1387       C  0.33310466  0.05560748  0.90313191    -0.23380
C1388       C  0.36529033  0.08717511  0.90108057     0.19520
F1389       F  0.40946898  0.07314993  0.89741760    -0.13340
F1390       F  0.38296827  0.16368020  0.89655289    -0.15700
F1391       F  0.25558020  0.04094858  0.90985870    -0.15700
F1392       F  0.22874798  0.13107657  0.90749363    -0.13340
C1393       C  0.76610101  0.51609196  0.97837195     0.24670
C1394       C  0.77790513  0.47014565  0.98411666    -0.23430
C1395       C  0.77599110  0.45369451  0.01259393     0.19580
C1396       C  0.76188121  0.48304761  0.03498332     0.24620
C1397       C  0.74855270  0.52908992  0.02896623    -0.23380
C1398       C  0.75027419  0.54491770  0.00016663     0.19520
F1399       F  0.73831277  0.58908151  0.99322930    -0.13340
F1400       F  0.77013598  0.53297581  0.95126994    -0.15700
F1401       F  0.76369079  0.46705227  0.06256055    -0.15700
F1402       F  0.78834011  0.40953238  0.01872411    -0.13340
C1403       C  0.88409747  0.81636364  0.04413558     0.24670
C1404       C  0.89972522  0.77060898  0.04833773    -0.23430
C1405       C  0.92864055  0.74926331  0.02797864     0.19580
C1406       C  0.93554813  0.77072963  0.00160609     0.24620
C1407       C  0.91260738  0.81320685  0.99519235    -0.23380
C1408       C  0.89057038  0.83774556  0.01750605     0.19520
F1409       F  0.86874829  0.87915720  0.01203901    -0.13340
F1410       F  0.85655475  0.83778942  0.06381551    -0.15700
F1411       F  0.95865051  0.74716193  0.98071250    -0.15700
F1412       F  0.94521737  0.70547105  0.03211365    -0.13340
C1413       C  0.69525274  0.55345005  0.24548257     0.24670
C1414       C  0.67997277  0.55306892  0.21654919    -0.23430
C1415       C  0.63437006  0.54576077  0.21133240     0.19580
C1416       C  0.60419275  0.54363205  0.23435796     0.24620
C1417       C  0.61895739  0.54967388  0.26271273    -0.23380
C1418       C  0.66484088  0.55278359  0.26817851     0.19520
F1419       F  0.67999659  0.55695493  0.29562013    -0.13340
F1420       F  0.73926971  0.55720801  0.25207881    -0.15700
F1421       F  0.56003736  0.53902425  0.22877986    -0.15700
F1422       F  0.61822804  0.54340848  0.18403124    -0.13340
C1423       C  0.94590879  0.72892152  0.22133141     0.24670
C1424       C  0.89935490  0.73920347  0.22566587    -0.23430
C1425       C  0.88486867  0.76140896  0.25079520     0.19580
C1426       C  0.91607110  0.76854700  0.27262456     0.24620
C1427       C  0.96125344  0.75029430  0.27044496    -0.23380
C1428       C  0.97665079  0.73444083  0.24363660     0.19520
F1429       F  0.01988064  0.71683590  0.24070975    -0.13340
F1430       F  0.96106894  0.70841192  0.19681382    -0.15700
F1431       F  0.90060451  0.78567289  0.29801616    -0.15700
F1432       F  0.84038738  0.77357808  0.25493096    -0.13340
C1433       C  0.73535133  0.03970650  0.99779645     0.24670
C1434       C  0.72812699  0.02573623  0.02662851    -0.23430
C1435       C  0.73837207  0.97964594  0.03403006     0.19580
C1436       C  0.75771399  0.94924764  0.01358743     0.24620
C1437       C  0.76875512  0.96471336  0.98582863    -0.23380
C1438       C  0.75632011  0.00988044  0.97796969     0.19520
F1439       F  0.76367171  0.02497498  0.95072027    -0.13340
F1440       F  0.72419120  0.08327160  0.98912826    -0.15700
F1441       F  0.76680807  0.90491243  0.02110579    -0.15700
F1442       F  0.73239636  0.96455952  0.06142157    -0.13340
C1443       C  0.82652288  0.26708945  0.00793066     0.24670
C1444       C  0.81468852  0.27693536  0.03650712    -0.23430
C1445       C  0.77690934  0.30847553  0.04122608     0.19580
C1446       C  0.74862048  0.32471780  0.01798397     0.24620
C1447       C  0.75910738  0.31178902  0.98960374    -0.23380
C1448       C  0.79986128  0.28510059  0.98493670     0.19520
F1449       F  0.81392473  0.27593152  0.95774151    -0.13340
F1450       F  0.86354517  0.23869019  0.00222771    -0.15700
F1451       F  0.71064715  0.35190296  0.02331636    -0.15700
F1452       F  0.76590896  0.32193193  0.06830293    -0.13340
C1453       C  0.81757656  0.87709384  0.14689033     0.24670
C1454       C  0.77700905  0.85652225  0.15080080    -0.23430
C1455       C  0.73714423  0.88301858  0.15735402     0.19580
C1456       C  0.73676164  0.92985739  0.15640947     0.24620
C1457       C  0.77618946  0.95004990  0.14880072    -0.23380
C1458       C  0.81704816  0.92348034  0.14574097     0.19520
F1459       F  0.85586765  0.94180562  0.13852990    -0.13340
F1460       F  0.85732361  0.85284771  0.14124958    -0.15700
F1461       F  0.69750170  0.95529075  0.16142769    -0.15700
F1462       F  0.69826619  0.86382686  0.16326565    -0.13340
C1463       C  0.80747246  0.37288053  0.16098211     0.24670
C1464       C  0.77035531  0.35542439  0.14741174    -0.23430
C1465       C  0.73826857  0.38420516  0.13260010     0.19580
C1466       C  0.74515934  0.42922769  0.12908079     0.24620
C1467       C  0.78388488  0.44654453  0.14095637    -0.23380
C1468       C  0.81433829  0.41844336  0.15763398     0.19520
F1469       F  0.85057614  0.43485891  0.17046794    -0.13340
F1470       F  0.83796841  0.34542364  0.17638648    -0.15700
F1471       F  0.71461513  0.45526106  0.11277938    -0.15700
F1472       F  0.70234834  0.36821888  0.11906605    -0.13340
C1473       C  0.66336587  0.05791610  0.24456659     0.24670
C1474       C  0.65004290  0.06020924  0.21522492    -0.23430
C1475       C  0.60467716  0.05332137  0.20868865     0.19580
C1476       C  0.57305136  0.04831211  0.23097184     0.24620
C1477       C  0.58599059  0.05076140  0.26018289    -0.23380
C1478       C  0.63177304  0.05399146  0.26655540     0.19520
F1479       F  0.64574363  0.05536319  0.29443410    -0.13340
F1480       F  0.70697749  0.06165364  0.25227482    -0.15700
F1481       F  0.52936078  0.04421594  0.22385167    -0.15700
F1482       F  0.59005895  0.05468018  0.18089011    -0.13340
C1483       C  0.93017795  0.22710631  0.22415286     0.24670
C1484       C  0.88373347  0.24074974  0.22240371    -0.23430
C1485       C  0.86341361  0.26599467  0.24482047     0.19580
C1486       C  0.88748974  0.27202752  0.27022950     0.24620
C1487       C  0.93114299  0.25002832  0.27425460    -0.23380
C1488       C  0.95391108  0.23204032  0.25001894     0.19520
F1489       F  0.99693217  0.21338514  0.25262150    -0.13340
F1490       F  0.95108342  0.20417801  0.20217721    -0.15700
F1491       F  0.86549206  0.29255680  0.29272509    -0.15700
F1492       F  0.81919826  0.28148012  0.24304553    -0.13340
C1493       C  0.33002622  0.44044422  0.00894093     0.24670
C1494       C  0.30574603  0.47809912  0.02126561    -0.23430
C1495       C  0.25801386  0.48075909  0.01834052     0.19580
C1496       C  0.23578054  0.44900305  0.00257409     0.24620
C1497       C  0.25991151  0.41316770  0.98843221    -0.23380
C1498       C  0.30733531  0.40884012  0.99254196     0.19520
F1499       F  0.33224084  0.37639011  0.97835477    -0.13340
F1500       F  0.37570364  0.43606412  0.01074825    -0.15700
F1501       F  0.19027501  0.45535708  0.99942110    -0.15700
F1502       F  0.23220078  0.51599583  0.02962829    -0.13340
C1503       C  0.26056120  0.80214028  0.03121554     0.24670
C1504       C  0.25280338  0.75591820  0.02745280    -0.23430
C1505       C  0.28070320  0.73205205  0.00751623     0.19580
C1506       C  0.31812046  0.75019804  0.99525127     0.24620
C1507       C  0.32418250  0.79676832  0.99650096    -0.23380
C1508       C  0.29441137  0.82284090  0.01490625     0.19520
F1509       F  0.29793582  0.86802562  0.01721810    -0.13340
F1510       F  0.23436797  0.82768304  0.04966916    -0.15700
F1511       F  0.34714219  0.72151683  0.98042879    -0.15700
F1512       F  0.27203648  0.69012837  0.99931572    -0.13340
C1513       C  0.51287326  0.66397896  0.08015578     0.24670
C1514       C  0.49517665  0.62360164  0.08956953    -0.23430
C1515       C  0.52339034  0.58972664  0.10338470     0.19580
C1516       C  0.56775851  0.59725922  0.10957718     0.24620
C1517       C  0.58500262  0.63872148  0.10169467    -0.23380
C1518       C  0.55752461  0.67156561  0.08628615     0.19520
F1519       F  0.57362646  0.71102019  0.07743665    -0.13340
F1520       F  0.48621525  0.69696502  0.06622419    -0.15700
F1521       F  0.59299963  0.56473489  0.12485595    -0.15700
F1522       F  0.50696342  0.55110254  0.11349988    -0.13340
C1523       C  0.05624221  0.67098698  0.10079471     0.24670
C1524       C  0.08341361  0.63674842  0.11537613    -0.23430
C1525       C  0.06545872  0.61125369  0.13761453     0.19580
C1526       C  0.02079841  0.61976439  0.14514237     0.24620
C1527       C  0.99349742  0.65317414  0.13015754    -0.23380
C1528       C  0.01130005  0.67922793  0.10822490     0.19520
F1529       F  0.98468526  0.71069145  0.09297231    -0.13340
F1530       F  0.07302387  0.69581725  0.07909917    -0.15700
F1531       F  0.00384343  0.59482564  0.16673881    -0.15700
F1532       F  0.09129988  0.57901931  0.15267840    -0.13340
C1533       C  0.11301508  0.61608884  0.23898244     0.24670
C1534       C  0.10238026  0.64989987  0.25937297    -0.23430
C1535       C  0.11721653  0.69375296  0.25348350     0.19580
C1536       C  0.14351956  0.70243647  0.22914889     0.24620
C1537       C  0.15590139  0.66798314  0.20977602    -0.23380
C1538       C  0.13977053  0.62490616  0.21479840     0.19520
F1539       F  0.15213965  0.59026918  0.19696584    -0.13340
F1540       F  0.09982869  0.57371797  0.24318674    -0.15700
F1541       F  0.15896940  0.74397563  0.22544367    -0.15700
F1542       F  0.10687773  0.72874741  0.27153021    -0.13340
C1543       C  0.46654009  0.60144171  0.19108323     0.24670
C1544       C  0.44307728  0.56175482  0.19306210    -0.23430
C1545       C  0.44154773  0.53986056  0.21998442     0.19580
C1546       C  0.45642279  0.56049815  0.24478436     0.24620
C1547       C  0.47471678  0.60287801  0.24340096    -0.23380
C1548       C  0.48198310  0.62210217  0.21615766     0.19520
F1549       F  0.49941269  0.66290910  0.21399020    -0.13340
F1550       F  0.46831616  0.62394026  0.16544086    -0.15700
F1551       F  0.44775405  0.54161016  0.27075251    -0.15700
F1552       F  0.41859982  0.50231387  0.22292078    -0.13340
C1553       C  0.27280434  0.02443727  0.98601640     0.24670
C1554       C  0.31061696  0.99724195  0.97692876    -0.23430
C1555       C  0.35390541  0.01302983  0.98152557     0.19580
C1556       C  0.35924398  0.05052133  0.99852069     0.24620
C1557       C  0.32197299  0.07388629  0.01110455    -0.23380
C1558       C  0.27833546  0.06233749  0.00309158     0.19520
F1559       F  0.24060301  0.08404323  0.01394480    -0.13340
F1560       F  0.23058979  0.01232961  0.98066106    -0.15700
F1561       F  0.40154462  0.06137661  0.00502445    -0.15700
F1562       F  0.39198531  0.99121179  0.97070921    -0.13340
C1563       C  0.30293370  0.20799453  0.98748104     0.24670
C1564       C  0.32245361  0.24978806  0.98810794    -0.23430
C1565       C  0.31674067  0.27584368  0.01294977     0.19580
C1566       C  0.28451434  0.26577866  0.03334403     0.24620
C1567       C  0.25914110  0.22804288  0.02996277    -0.23380
C1568       C  0.26798666  0.19999653  0.00634356     0.19520
F1569       F  0.24277126  0.16505212  0.00136214    -0.13340
F1570       F  0.30983660  0.18064707  0.96440916    -0.15700
F1571       F  0.27646021  0.29418708  0.05576376    -0.15700
F1572       F  0.33884213  0.31360414  0.01604756    -0.13340
C1573       C  0.27765424  0.86285174  0.11321303     0.24670
C1574       C  0.26536541  0.83123202  0.13373358    -0.23430
C1575       C  0.24062769  0.84602544  0.15806815     0.19580
C1576       C  0.22943549  0.89223124  0.16216413     0.24620
C1577       C  0.24159983  0.92416329  0.14143905    -0.23380
C1578       C  0.26451333  0.90864312  0.11659075     0.19520
F1579       F  0.27287458  0.93749859  0.09493752    -0.13340
F1580       F  0.30025779  0.84919058  0.08908278    -0.15700
F1581       F  0.20640999  0.90547618  0.18621892    -0.15700
F1582       F  0.22739059  0.81564621  0.17787344    -0.13340
C1583       C  0.33966861  0.38630202  0.09623894     0.24670
C1584       C  0.31603957  0.41330342  0.11668724    -0.23430
C1585       C  0.29607434  0.39326667  0.14020829     0.19580
C1586       C  0.29730251  0.34651821  0.14264271     0.24620
C1587       C  0.31754100  0.31866124  0.12087601    -0.23380
C1588       C  0.34039922  0.33909653  0.09824620     0.19520
F1589       F  0.36228210  0.31378235  0.07767414    -0.13340
F1590       F  0.36015496  0.40567763  0.07367279    -0.15700
F1591       F  0.27736653  0.32905405  0.16612965    -0.15700
F1592       F  0.27505772  0.41918752  0.16088245    -0.13340
C1593       C  0.48914805  0.19108152  0.10030532     0.24670
C1594       C  0.47135103  0.14888647  0.09840337    -0.23430
C1595       C  0.50036979  0.10955789  0.09545343     0.19580
C1596       C  0.54683015  0.11166394  0.09680821     0.24620
C1597       C  0.56523352  0.15337277  0.10175717    -0.23380
C1598       C  0.53582007  0.19342285  0.10205767     0.19520
F1599       F  0.55173156  0.23463240  0.10565009    -0.13340
F1600       F  0.46133218  0.22954591  0.10302802    -0.15700
F1601       F  0.57337447  0.07225690  0.09464661    -0.15700
F1602       F  0.48350729  0.06858484  0.09268663    -0.13340
C1603       C  0.00287790  0.11553515  0.16221970     0.24670
C1604       C  0.98420775  0.14012504  0.13807555    -0.23430
C1605       C  0.01128746  0.14605770  0.11407391     0.19580
C1606       C  0.05569054  0.12663508  0.11366488     0.24620
C1607       C  0.07502580  0.10208899  0.13779703    -0.23380
C1608       C  0.04792663  0.09706214  0.16220414     0.19520
F1609       F  0.06425805  0.07256722  0.18552193    -0.13340
F1610       F  0.97663380  0.10752940  0.18531344    -0.15700
F1611       F  0.07909588  0.13108662  0.08900782    -0.15700
F1612       F  0.99352519  0.16726332  0.08991267    -0.13340
C1613       C  0.10653574  0.14727279  0.22787413     0.24670
C1614       C  0.15195983  0.14763677  0.23621249    -0.23430
C1615       C  0.16525232  0.13504434  0.26433471     0.19580
C1616       C  0.13346835  0.12213969  0.28394140     0.24620
C1617       C  0.08828636  0.12042990  0.27544388    -0.23380
C1618       C  0.07488549  0.13277701  0.24728272     0.19520
F1619       F  0.03127638  0.13147024  0.23886049    -0.13340
F1620       F  0.09360149  0.15879931  0.20044784    -0.15700
F1621       F  0.14647848  0.11205070  0.31152675    -0.15700
F1622       F  0.20926614  0.13332728  0.27239880    -0.13340
C1623       C  0.39021092  0.06577935  0.23882685     0.24670
C1624       C  0.34424567  0.08055559  0.23485847    -0.23430
C1625       C  0.32865729  0.12304610  0.24591934     0.19580
C1626       C  0.35796667  0.14932294  0.26101829     0.24620
C1627       C  0.40367803  0.13379978  0.26566717    -0.23380
C1628       C  0.41938892  0.09213137  0.25370478     0.19520
F1629       F  0.46281275  0.07571738  0.25732494    -0.13340
F1630       F  0.40731542  0.02572516  0.22784140    -0.15700
F1631       F  0.34145709  0.19006067  0.27127144    -0.15700
F1632       F  0.28550335  0.14012035  0.24124493    -0.13340
loop_ 
_geom_bond_atom_site_label_1 
_geom_bond_atom_site_label_2 
_geom_bond_distance 
_geom_bond_site_symmetry_2 
_ccdc_geom_bond_type 
O1          Zr13   2.397       .  S
O1            C3   1.261       .  A
O2          Zr39   2.498       .  S
O2            C3   1.289       .  A
C3         C1624   1.493       .  S
O4          Zr16   2.410       .  S
O4            C6   1.282       .  A
O5          Zr40   2.420       .  S
O5            C6   1.289       .  A
C6         C1587   1.479       .  S
O7          Zr16   2.464       .  S
O7            C9   1.290       .  A
O8          Zr39   2.350       .  S
O8            C9   1.273       .  A
C9         C1614   1.443       .  S
O10         Zr13   2.433       .  S
O10          C12   1.286       .  A
O11         Zr40   2.400       .  S
O11          C12   1.282       .  A
C12        C1594   1.461       .  S
Zr13         O14   2.435       .  S
Zr13         O15   2.435       .  S
Zr13         O19   2.393       .  S
Zr13         O20   2.355       .  S
Zr13         O43   2.344       .  S
Zr13         O45   2.388       .  S
O14          H57   0.989       .  S
O15          H56   0.990       .  S
O15          H60   0.990       .  S
Zr16         O17   2.434       .  S
Zr16         O18   2.435       .  S
Zr16         O20   2.395       .  S
Zr16         O19   2.334       .  S
Zr16         O44   2.366       .  S
Zr16         O46   2.357       .  S
O17          H58   0.990       .  S
O17          H61   0.990       .  S
O18          H51   0.990       .  S
O19         Zr39   2.387       .  S
O20         Zr40   2.379       .  S
O20          H47   0.966       .  S
O21         Zr33   2.425       .  S
O21          C23   1.273       .  A
O22         Zr40   2.456       .  S
O22          C23   1.283       .  A
C23        C1557   1.479       .  S
O24         Zr36   2.403       .  S
O24          C26   1.271       .  A
O25         Zr39   2.478       .  S
O25          C26   1.289       .  A
C26        C1607   1.495       .  S
O27         Zr36   2.464       .  S
O27          C29   1.276       .  A
O28         Zr40   2.383       .  S
O28          C29   1.256       .  A
C29        C1567   1.472       .  S
O30         Zr33   2.402       .  S
O30          C32   1.267   1_545  A
O31         Zr39   2.418   1_565  S
O31          C32   1.264       .  A
C32        C1577   1.477       .  S
Zr33         O34   2.435   1_545  S
Zr33         O35   2.440   1_545  S
Zr33         O41   2.386       .  S
Zr33         O42   2.382       .  S
Zr33         O45   2.387       .  S
Zr33         O43   2.382       .  S
O34          H54   0.988   1_565  S
O34          H59   0.988       .  S
O35          H55   0.990       .  S
Zr36         O37   2.436       .  S
Zr36         O38   2.435       .  S
Zr36         O42   2.395       .  S
Zr36         O41   2.351       .  S
Zr36         O46   2.379       .  S
Zr36         O44   2.388       .  S
O37          H53   0.990       .  S
O38          H52   0.990       .  S
O38          H62   0.990       .  S
Zr39         O42   2.436       .  S
Zr39         O44   2.417       .  S
Zr39         O45   2.474       .  S
Zr40         O41   2.416       .  S
Zr40         O43   2.392       .  S
Zr40         O46   2.384       .  S
O41          H49   0.951       .  S
O44          H48   0.965       .  S
O45          H50   0.971       .  S
O63         Zr75   2.417       .  S
O63          C65   1.285       .  A
O64        Zr101   2.500       .  S
O64          C65   1.301       .  A
C65        C1544   1.482       .  S
O66         Zr78   2.432       .  S
O66          C68   1.287       .  A
O67        Zr102   2.356       .  S
O67          C68   1.277       .  A
C68        C1524   1.445       .  S
O69         Zr78   2.456       .  S
O69          C71   1.292       .  A
O70        Zr101   2.377       .  S
O70          C71   1.280       .  A
C71        C1584   1.452       .  S
O72         Zr75   2.442       .  S
O72          C74   1.289       .  A
O73        Zr102   2.525       .  S
O73          C74   1.307       .  A
C74        C1537   1.498       .  S
Zr75         O76   2.435       .  S
Zr75         O77   2.434       .  S
Zr75         O81   2.372       .  S
Zr75         O82   2.355       .  S
Zr75        O105   2.368       .  S
Zr75        O107   2.368       .  S
O76         H119   0.990       .  S
O77         H118   0.990       .  S
O77         H122   0.990       .  S
Zr78         O79   2.437       .  S
Zr78         O80   2.433       .  S
Zr78         O82   2.300       .  S
Zr78         O81   2.375       .  S
Zr78        O106   2.283       .  S
Zr78        O108   2.394       .  S
O79         H120   0.989       .  S
O79         H123   0.989       .  S
O80         H113   0.990       .  S
O81        Zr101   2.405       .  S
O82        Zr102   2.396       .  S
O82         H109   0.960       .  S
O83         Zr95   2.470       .  S
O83          C85   1.293       .  A
O84        Zr102   2.369       .  S
O84          C85   1.278       .  A
C85        C1574   1.460       .  S
O86         Zr98   2.448       .  S
O86          C88   1.288       .  A
O87        Zr101   2.562       .  S
O87          C88   1.312       .  A
C88        C1494   1.523       .  S
O89         Zr98   2.462       .  S
O89          C91   1.280       .  A
O90        Zr102   2.525       .  S
O90          C91   1.295       .  A
C91        C1504   1.533       .  S
O92         Zr95   2.399       .  S
O92          C94   1.281       .  A
O93        Zr101   2.423       .  S
O93          C94   1.290       .  A
C94        C1514   1.460       .  S
Zr95         O96   2.441       .  S
Zr95         O97   2.435       .  S
Zr95        O103   2.284       .  S
Zr95        O104   2.416       .  S
Zr95        O107   2.322       .  S
Zr95        O105   2.376       .  S
O96         H116   0.990       .  S
O96         H121   0.990       .  S
O97         H117   0.990       .  S
Zr98         O99   2.435       .  S
Zr98        O100   2.453       .  S
Zr98        O104   2.371       .  S
Zr98        O103   2.380       .  S
Zr98        O108   2.390       .  S
Zr98        O106   2.354       .  S
O99         H115   0.990       .  S
O100        H114   0.989       .  S
O100        H124   0.990   1_554  S
Zr101       O104   2.388       .  S
Zr101       O106   2.374       .  S
Zr101       O107   2.407       .  S
Zr102       O103   2.400       .  S
Zr102       O105   2.383       .  S
Zr102       O108   2.410       .  S
O103        H111   0.958       .  S
O106        H110   0.955       .  S
O107        H112   0.961       .  S
O125       Zr137   2.401       .  S
O125        C127   1.276       .  A
O126       Zr163   2.464       .  S
O126        C127   1.294       .  A
C127       C1604   1.473       .  S
O128       Zr140   2.403       .  S
O128        C130   1.281       .  A
O129       Zr164   2.497       .  S
O129        C130   1.300       .  A
C130       C1434   1.491       .  S
O131       Zr140   2.424       .  S
O131        C133   1.275       .  A
O132       Zr163   2.467       .  S
O132        C133   1.283       .  A
C133       C1444   1.499       .  S
O134       Zr137   2.414       .  S
O134        C136   1.283   1_545  A
O135       Zr164   2.360       .  S
O135        C136   1.276   1_545  A
C136       C1457   1.445       .  S
Zr137       O138   2.437       .  S
Zr137       O139   2.440       .  S
Zr137       O143   2.376       .  S
Zr137       O144   2.332       .  S
Zr137       O167   2.362       .  S
Zr137       O169   2.355       .  S
O138        H181   0.990       .  S
O139        H180   0.990       .  S
O139        H184   0.990       .  S
Zr140       O141   2.439       .  S
Zr140       O142   2.435       .  S
Zr140       O144   2.388       .  S
Zr140       O143   2.392       .  S
Zr140       O168   2.352       .  S
Zr140       O170   2.373       .  S
O141        H182   0.990       .  S
O141        H185   0.990       .  S
O142        H175   0.990       .  S
O143       Zr163   2.383       .  S
O144       Zr164   2.395       .  S
O144        H171   0.963       .  S
O145       Zr157   2.444       .  S
O145        C147   1.290       .  A
O146       Zr164   2.484       .  S
O146        C147   1.299       .  A
C147       C1474   1.507       .  S
O148       Zr160   2.422       .  S
O148        C150   1.287       .  A
O149       Zr163   2.354       .  S
O149        C150   1.276       .  A
C150       C1464   1.442       .  S
O151       Zr160   2.446       .  S
O151        C153   1.289       .  A
O152       Zr164   2.398       .  S
O152        C153   1.283       .  A
C153       C1597   1.485       .  S
O154       Zr157   2.473       .  S
O154        C156   1.296       .  A
O155       Zr163   2.413       .  S
O155        C156   1.284       .  A
C156       C1484   1.475       .  S
Zr157       O158   2.434       .  S
Zr157       O159   2.434       .  S
Zr157       O165   2.385       .  S
Zr157       O166   2.342       .  S
Zr157       O169   2.367       .  S
Zr157       O167   2.360       .  S
O158        H178   0.990       .  S
O158        H183   0.990       .  S
O159        H179   0.990       .  S
Zr160       O161   2.435       .  S
Zr160       O162   2.435       .  S
Zr160       O166   2.376       .  S
Zr160       O165   2.336       .  S
Zr160       O170   2.373       .  S
Zr160       O168   2.343       .  S
O161        H177   0.990       .  S
O162        H176   0.990       .  S
O162        H186   0.990       .  S
Zr163       O166   2.398       .  S
Zr163       O168   2.410       .  S
Zr163       O169   2.383       .  S
Zr164       O165   2.393       .  S
Zr164       O167   2.388       .  S
Zr164       O170   2.380       .  S
O165        H173   0.965       .  S
O168        H172   0.959       .  S
O169        H174   0.965       .  S
O187       Zr199   2.382       .  S
O187        C189   1.278       .  A
O188       Zr225   2.385       .  S
O188        C189   1.278       .  A
C189       C1527   1.437       .  S
O190       Zr202   2.393       .  S
O190        C192   1.280       .  A
O191       Zr226   2.479       .  S
O191        C192   1.296       .  A
C192       C1397   1.481       .  S
O193       Zr202   2.437       .  S
O193        C195   1.286       .  A
O194       Zr225   2.408       .  S
O194        C195   1.280       .  A
C195       C1404   1.466       .  S
O196       Zr199   2.448       .  S
O196        C198   1.288       .  A
O197       Zr226   2.309       .  S
O197        C198   1.266       .  A
C198       C1467   1.449       .  S
Zr199       O200   2.434       .  S
Zr199       O201   2.436       .  S
Zr199       O205   2.387       .  S
Zr199       O206   2.330       .  S
Zr199       O229   2.342       .  S
Zr199       O231   2.360       .  S
O200        H243   0.990       .  S
O201        H242   0.990       .  S
O201        H246   0.990       .  S
Zr202       O203   2.437       .  S
Zr202       O204   2.435       .  S
Zr202       O206   2.386       .  S
Zr202       O205   2.359       .  S
Zr202       O230   2.352       .  S
Zr202       O232   2.370       .  S
O203        H244   0.990       .  S
O203        H247   0.990       .  S
O204        H237   0.990       .  S
O205       Zr225   2.361       .  S
O206       Zr226   2.368       .  S
O206        H233   0.964       .  S
O207       Zr219   2.427       .  S
O207        C209   1.282       .  A
O208       Zr226   2.443       .  S
O208        C209   1.288       .  A
C209       C1414   1.490       .  S
O210       Zr222   2.415       .  S
O210        C212   1.284       .  A
O211       Zr225   2.354       .  S
O211        C212   1.274       .  A
C212       C1454   1.450       .  S
O213       Zr222   2.470       .  S
O213        C215   1.293       .  A
O214       Zr226   2.345       .  S
O214        C215   1.272       .  A
C215       C1517   1.468       .  S
O216       Zr219   2.494       .  S
O216        C218   1.297       .  A
O217       Zr225   2.376       .  S
O217        C218   1.276       .  A
C218       C1424   1.473       .  S
Zr219       O220   2.434       .  S
Zr219       O221   2.434       .  S
Zr219       O227   2.395       .  S
Zr219       O228   2.343       .  S
Zr219       O231   2.362       .  S
Zr219       O229   2.375       .  S
O220        H240   0.990       .  S
O220        H245   0.990       .  S
O221        H241   0.990       .  S
Zr222       O223   2.435       .  S
Zr222       O224   2.434       .  S
Zr222       O228   2.388       .  S
Zr222       O227   2.352       .  S
Zr222       O232   2.365       .  S
Zr222       O230   2.386       .  S
O223        H239   0.990       .  S
O224        H238   0.990       .  S
O224        H248   0.990       .  S
Zr225       O228   2.371       .  S
Zr225       O230   2.376       .  S
Zr225       O231   2.375       .  S
Zr226       O227   2.390       .  S
Zr226       O229   2.376       .  S
Zr226       O232   2.366       .  S
O227        H235   0.966       .  S
O230        H234   0.966       .  S
O231        H236   0.965       .  S
O249       Zr261   2.518       .  S
O249        C251   1.301       .  A
O250       Zr287   2.309       .  S
O250        C251   1.275       .  A
C251       C1564   1.463       .  S
O252       Zr264   2.433       .  S
O252        C254   1.285       .  A
O253       Zr288   2.378       .  S
O253        C254   1.276       .  A
C254       C1374   1.444       .  S
O255       Zr264   2.407       .  S
O255        C257   1.272       .  A
O256       Zr287   2.569       .  S
O256        C257   1.305       .  A
C257       C1497   1.519       .  S
O258       Zr261   2.391       .  S
O258        C260   1.278       .  A
O259       Zr288   2.485       .  S
O259        C260   1.298       .  A
C260       C1357   1.484       .  S
Zr261       O262   2.435       .  S
Zr261       O263   2.438       .  S
Zr261       O267   2.324       .  S
Zr261       O268   2.408       .  S
Zr261       O291   2.375       .  S
Zr261       O293   2.327       .  S
O262        H305   0.990       .  S
O263        H304   0.990       .  S
O263        H308   0.990       .  S
Zr264       O265   2.438       .  S
Zr264       O266   2.435       .  S
Zr264       O268   2.376       .  S
Zr264       O267   2.366       .  S
Zr264       O292   2.389       .  S
Zr264       O294   2.342       .  S
O265        H306   0.990       .  S
O265        H309   0.990       .  S
O266        H299   0.990       .  S
O267       Zr287   2.350       .  S
O268       Zr288   2.387       .  S
O268        H295   0.966       .  S
O269       Zr281   2.535       .  S
O269        C271   1.302       .  A
O270       Zr288   2.313       .  S
O270        C271   1.268       .  A
C271       C1347   1.492       .  S
O272       Zr284   2.420       .  S
O272        C274   1.281       .  A
O273       Zr287   2.502       .  S
O273        C274   1.303       .  A
C274       C1367   1.500       .  S
O275       Zr284   2.395       .  S
O275        C277   1.267       .  A
O276       Zr288   2.491       .  S
O276        C277   1.286       .  A
C277       C1337   1.501       .  S
O278       Zr281   2.424       .  S
O278        C280   1.287       .  A
O279       Zr287   2.482       .  S
O279        C280   1.298       .  A
C280       C1384   1.480       .  S
Zr281       O282   2.434       .  S
Zr281       O283   2.433       .  S
Zr281       O289   2.340       .  S
Zr281       O290   2.409       .  S
Zr281       O293   2.383       .  S
Zr281       O291   2.355       .  S
O282        H302   0.990       .  S
O282        H307   0.990       .  S
O283        H303   0.990       .  S
Zr284       O285   2.434       .  S
Zr284       O286   2.436       .  S
Zr284       O290   2.366       .  S
Zr284       O289   2.399       .  S
Zr284       O294   2.389       .  S
Zr284       O292   2.372       .  S
O285        H301   0.990       .  S
O286        H300   0.990       .  S
O286        H310   0.989       .  S
Zr287       O290   2.391       .  S
Zr287       O292   2.376       .  S
Zr287       O293   2.407       .  S
Zr288       O289   2.411       .  S
Zr288       O291   2.382       .  S
Zr288       O294   2.390       .  S
O289        H297   0.966       .  S
O292        H296   0.966       .  S
O293        H298   0.963       .  S
O311       Zr323   2.554       .  S
O311        C313   1.306       .  A
O312       Zr349   2.327       .  S
O312        C313   1.269       .  A
C313       C1554   1.490       .  S
O314       Zr326   2.414       .  S
O314        C316   1.283       .  A
O315       Zr350   2.407       .  S
O315        C316   1.282       .  A
C316       C1377   1.473       .  S
O317       Zr326   2.429       .  S
O317        C319   1.274       .  A
O318       Zr349   2.562       .  S
O318        C319   1.299       .  A
C319       C1507   1.529       .  S
O320       Zr323   2.361       .  S
O320        C322   1.272       .  A
O321       Zr350   2.527       .  S
O321        C322   1.306       .  A
C322       C1324   1.484       .  S
Zr323       O324   2.433       .  S
Zr323       O325   2.438       .  S
Zr323       O329   2.281       .  S
Zr323       O330   2.420       .  S
Zr323       O353   2.401       .  S
Zr323       O355   2.319       .  S
O324        H367   0.990       .  S
O325        H366   0.990       .  S
O325        H370   0.990       .  S
Zr326       O327   2.441       .  S
Zr326       O328   2.434       .  S
Zr326       O330   2.381       .  S
Zr326       O329   2.354       .  S
Zr326       O354   2.397       .  S
Zr326       O356   2.343       .  S
O327        H368   0.987       .  S
O327        H371   0.989       .  S
O328        H361   0.990       .  S
O329       Zr349   2.339       .  S
O330       Zr350   2.395       .  S
O330        H357   0.965       .  S
O331       Zr343   2.576       .  S
O331        C333   1.314       .  A
O332       Zr350   2.290       .  S
O332        C333   1.265       .  A
C333       C1294   1.489       .  S
O334       Zr346   2.408       .  S
O334        C336   1.271       .  A
O335       Zr349   2.481       .  S
O335        C336   1.293       .  A
C336       C1317   1.495       .  S
O337       Zr346   2.401       .  S
O337        C339   1.267       .  A
O338       Zr350   2.529       .  S
O338        C339   1.298       .  A
C339       C1304   1.514       .  S
O340       Zr343   2.426       .  S
O340        C342   1.288   1_565  A
O341       Zr349   2.489       .  S
O341        C342   1.299   1_565  A
C342       C1387   1.473       .  S
Zr343       O344   2.436       .  S
Zr343       O345   2.433       .  S
Zr343       O351   2.294       .  S
Zr343       O352   2.414       .  S
Zr343       O355   2.376       .  S
Zr343       O353   2.343       .  S
O344        H364   0.990       .  S
O344        H369   0.990       .  S
O345        H365   0.990       .  S
Zr346       O347   2.429       .  S
Zr346       O348   2.438       .  S
Zr346       O352   2.368       .  S
Zr346       O351   2.389       .  S
Zr346       O356   2.381       .  S
Zr346       O354   2.373       .  S
O347        H363   0.990       .  S
O348        H362   0.990       .  S
O348        H372   0.990       .  S
Zr349       O352   2.402       .  S
Zr349       O354   2.406       .  S
Zr349       O355   2.423       .  S
Zr350       O351   2.403       .  S
Zr350       O353   2.395       .  S
Zr350       O356   2.385       .  S
O351        H359   0.959       .  S
O354        H358   0.965       .  S
O355        H360   0.958       .  S
O373       Zr385   2.427       .  S
O373        C375   1.277       .  A
O374       Zr411   2.513       .  S
O374        C375   1.295       .  A
C375       C1447   1.497       .  S
O376       Zr388   2.419       .  S
O376        C378   1.283       .  A
O377       Zr412   2.514       .  S
O377        C378   1.305       .  A
C378       C1364   1.522       .  S
O379       Zr388   2.506       .  S
O379        C381   1.300       .  A
O380       Zr411   2.368       .  S
O380        C381   1.281       .  A
C381       C1394   1.469       .  S
O382       Zr385   2.431       .  S
O382        C384   1.285       .  A
O383       Zr412   2.465       .  S
O383        C384   1.295       .  A
C384       C1284   1.491       .  S
Zr385       O386   2.447       .  S
Zr385       O387   2.433       .  S
Zr385       O391   2.360       .  S
Zr385       O392   2.395       .  S
Zr385       O415   2.339       .  S
Zr385       O417   2.385       .  S
O386        H429   0.990       .  S
O387        H428   0.990       .  S
O387        H432   0.990       .  S
Zr388       O389   2.436       .  S
Zr388       O390   2.435       .  S
Zr388       O392   2.405       .  S
Zr388       O391   2.324       .  S
Zr388       O416   2.357       .  S
Zr388       O418   2.375       .  S
O389        H430   0.990       .  S
O389        H433   0.990       .  S
O390        H423   0.990       .  S
O391       Zr411   2.364       .  S
O392       Zr412   2.422       .  S
O392        H419   0.966       .  S
O393       Zr405   2.403       .  S
O393        C395   1.269       .  A
O394       Zr412   2.524       .  S
O394        C395   1.297       .  A
C395       C1254   1.511       .  S
O396       Zr408   2.418       .  S
O396        C398   1.276       .  A
O397       Zr411   2.474       .  S
O397        C398   1.290       .  A
C398       C1277   1.500       .  S
O399       Zr408   2.426       .  S
O399        C401   1.285       .  A
O400       Zr412   2.470       .  S
O400        C401   1.296       .  A
C401       C1267   1.505       .  S
O402       Zr405   2.433       .  S
O402        C404   1.286       .  A
O403       Zr411   2.459       .  S
O403        C404   1.296       .  A
C404       C1354   1.503       .  S
Zr405       O406   2.440       .  S
Zr405       O407   2.437       .  S
Zr405       O413   2.403       .  S
Zr405       O414   2.355       .  S
Zr405       O417   2.380       .  S
Zr405       O415   2.385       .  S
O406        H426   0.988       .  S
O406        H431   0.990       .  S
O407        H427   0.990       .  S
Zr408       O409   2.434       .  S
Zr408       O410   2.434       .  S
Zr408       O414   2.367       .  S
Zr408       O413   2.357       .  S
Zr408       O418   2.367       .  S
Zr408       O416   2.368       .  S
O409        H425   0.990       .  S
O410        H424   0.990       .  S
O410        H434   0.990       .  S
Zr411       O414   2.386       .  S
Zr411       O416   2.407       .  S
Zr411       O417   2.407       .  S
Zr412       O413   2.424       .  S
Zr412       O415   2.414       .  S
Zr412       O418   2.398       .  S
O413        H421   0.965       .  S
O416        H420   0.966       .  S
O417        H422   0.966       .  S
O435       Zr447   2.406       .  S
O435        C437   1.280       .  A
O436       Zr473   2.476       .  S
O436        C437   1.297       .  A
C437       C1437   1.477       .  S
O438       Zr450   2.490       .  S
O438        C440   1.296       .  A
O439       Zr474   2.411       .  S
O439        C440   1.286       .  A
C440       C1274   1.486       .  S
O441       Zr450   2.433       .  S
O441        C443   1.289       .  A
O442       Zr473   2.431       .  S
O442        C443   1.289       .  A
C443       C1407   1.471       .  S
O444       Zr447   2.382       .  S
O444        C446   1.271       .  A
O445       Zr474   2.525       .  S
O445        C446   1.302       .  A
C446       C1314   1.492       .  S
Zr447       O448   2.434       .  S
Zr447       O449   2.436       .  S
Zr447       O453   2.342       .  S
Zr447       O454   2.370       .  S
Zr447       O477   2.373       .  S
Zr447       O479   2.368       .  S
O448        H491   0.990       .  S
O449        H490   0.990       .  S
O449        H494   0.990       .  S
Zr450       O451   2.438       .  S
Zr450       O452   2.434       .  S
Zr450       O454   2.355       .  S
Zr450       O453   2.384       .  S
Zr450       O478   2.378       .  S
Zr450       O480   2.363       .  S
O451        H492   0.990       .  S
O451        H495   0.990       .  S
O452        H485   0.990       .  S
O453       Zr473   2.399       .  S
O454       Zr474   2.394       .  S
O454        H481   0.965       .  S
O455       Zr467   2.568       .  S
O455        C457   1.314       .  A
O456       Zr474   2.310       .  S
O456        C457   1.270       .  A
C457       C1237   1.484       .  S
O458       Zr470   2.360       .  S
O458        C460   1.270       .  A
O459       Zr473   2.516       .  S
O459        C460   1.303       .  A
C460       C1327   1.486   1_655  S
O461       Zr470   2.382       .  S
O461        C463   1.260       .  A
O462       Zr474   2.543       .  S
O462        C463   1.296       .  A
C463       C1244   1.523       .  S
O464       Zr467   2.439       .  S
O464        C466   1.289   1_565  A
O465       Zr473   2.464       .  S
O465        C466   1.296   1_565  A
C466       C1287   1.494       .  S
Zr467       O468   2.436       .  S
Zr467       O469   2.434       .  S
Zr467       O475   2.315       .  S
Zr467       O476   2.413       .  S
Zr467       O479   2.386       .  S
Zr467       O477   2.342       .  S
O468        H488   0.989       .  S
O468        H493   0.990       .  S
O469        H489   0.990       .  S
Zr470       O471   2.428       .  S
Zr470       O472   2.441       .  S
Zr470       O476   2.364       .  S
Zr470       O475   2.377       .  S
Zr470       O480   2.385       .  S
Zr470       O478   2.352       .  S
O471        H487   0.990       .  S
O472        H486   0.990       .  S
O472        H496   0.990       .  S
Zr473       O476   2.381       .  S
Zr473       O478   2.399       .  S
Zr473       O479   2.407       .  S
Zr474       O475   2.396       .  S
Zr474       O477   2.382       .  S
Zr474       O480   2.398       .  S
O475        H483   0.957       .  S
O478        H482   0.965       .  S
O479        H484   0.966       .  S
O497       Zr509   2.405       .  S
O497        C499   1.267       .  A
O498       Zr535   2.514       .  S
O498        C499   1.294   1_455  A
C499       C1264   1.494       .  S
O500       Zr512   2.392       .  S
O500        C502   1.278   1_455  A
O501       Zr536   2.477       .  S
O501        C502   1.297       .  A
C502       C1207   1.462       .  S
O503       Zr512   2.551       .  S
O503        C505   1.309       .  A
O504       Zr535   2.346       .  S
O504        C505   1.273       .  A
C505       C1334   1.484       .  S
O506       Zr509   2.419       .  S
O506        C508   1.281       .  A
O507       Zr536   2.372       .  S
O507        C508   1.275       .  A
C508       C1217   1.436       .  S
Zr509       O510   2.435       .  S
Zr509       O511   2.436       .  S
Zr509       O515   2.381   1_655  S
Zr509       O516   2.361       .  S
Zr509       O539   2.354       .  S
Zr509       O541   2.371       .  S
O510        H553   0.989       .  S
O511        H552   0.990       .  S
O511        H556   0.990       .  S
Zr512       O513   2.434   1_455  S
Zr512       O514   2.435       .  S
Zr512       O516   2.423   1_455  S
Zr512       O515   2.307       .  S
Zr512       O540   2.334       .  S
Zr512       O542   2.394       .  S
O513        H554   0.990       .  S
O513        H557   0.990   1_655  S
O514        H547   0.990       .  S
O515       Zr535   2.370       .  S
O516       Zr536   2.404       .  S
O516        H543   0.966       .  S
O517       Zr529   2.361       .  S
O517        C519   1.257       .  A
O518       Zr536   2.550       .  S
O518        C519   1.292       .  A
C519       C1177   1.524       .  S
O520       Zr532   2.402       .  S
O520        C522   1.284       .  A
O521       Zr535   2.434       .  S
O521        C522   1.290       .  A
C522       C1224   1.445       .  S
O523       Zr532   2.606       .  S
O523        C525   1.318       .  A
O524       Zr536   2.308       .  S
O524        C525   1.262   1_655  A
C525       C1187   1.500   1_455  S
O526       Zr529   2.384   1_455  S
O526        C528   1.274       .  A
O527       Zr535   2.457       .  S
O527        C528   1.291       .  A
C528       C1194   1.456       .  S
Zr529       O530   2.438   1_655  S
Zr529       O531   2.432       .  S
Zr529       O537   2.394   1_655  S
Zr529       O538   2.338   1_655  S
Zr529       O541   2.352       .  S
Zr529       O539   2.396       .  S
O530        H550   0.987       .  S
O530        H555   0.988       .  S
O531        H551   0.990       .  S
Zr532       O533   2.435       .  S
Zr532       O534   2.434       .  S
Zr532       O538   2.427       .  S
Zr532       O537   2.306       .  S
Zr532       O542   2.313       .  S
Zr532       O540   2.415       .  S
O533        H549   0.990       .  S
O534        H548   0.990       .  S
O534        H558   0.990       .  S
Zr535       O538   2.395       .  S
Zr535       O540   2.415       .  S
Zr535       O541   2.375   1_455  S
Zr536       O537   2.400   1_655  S
Zr536       O539   2.377       .  S
Zr536       O542   2.378   1_655  S
O537        H545   0.963       .  S
O540        H544   0.965       .  S
O541        H546   0.960       .  S
O559       Zr571   2.385       .  S
O559        C561   1.260       .  A
O560       Zr597   2.583   1_655  S
O560        C561   1.307       .  A
C561       C1247   1.526       .  S
O562       Zr574   2.384       .  S
O562        C564   1.278   1_455  A
O563       Zr598   2.485       .  S
O563        C564   1.298       .  A
C564       C1197   1.458       .  S
O565       Zr574   2.598       .  S
O565        C567   1.319       .  A
O566       Zr597   2.287       .  S
O566        C567   1.268       .  A
C567       C1297   1.490       .  S
O568       Zr571   2.412       .  S
O568        C570   1.277       .  A
O569       Zr598   2.446       .  S
O569        C570   1.288       .  A
C570       C1154   1.477       .  S
Zr571       O572   2.438       .  S
Zr571       O573   2.435       .  S
Zr571       O577   2.386       .  S
Zr571       O578   2.378       .  S
Zr571       O601   2.330       .  S
Zr571       O603   2.392       .  S
O572        H615   0.989       .  S
O573        H614   0.990       .  S
O573        H618   0.990       .  S
Zr574       O575   2.433   1_455  S
Zr574       O576   2.438       .  S
Zr574       O578   2.448   1_455  S
Zr574       O577   2.275   1_455  S
Zr574       O602   2.331       .  S
Zr574       O604   2.385       .  S
O575        H616   0.990       .  S
O575        H619   0.990       .  S
O576        H609   0.990       .  S
O577       Zr597   2.346   1_655  S
O578       Zr598   2.415       .  S
O578        H605   0.965       .  S
O579       Zr591   2.401       .  S
O579        C581   1.263       .  A
O580       Zr598   2.544       .  S
O580        C581   1.297       .  A
C581       C1137   1.516       .  S
O582       Zr594   2.410       .  S
O582        C584   1.275       .  A
O583       Zr597   2.515       .  S
O583        C584   1.300       .  A
C584       C1167   1.499       .  S
O585       Zr594   2.594       .  S
O585        C587   1.317   1_455  A
O586       Zr598   2.315       .  S
O586        C587   1.269       .  A
C587       C1144   1.497       .  S
O588       Zr591   2.392   1_545  S
O588        C590   1.278   1_655  A
O589       Zr597   2.459       .  S
O589        C590   1.293   1_565  A
C590       C1204   1.462       .  S
Zr591       O592   2.464   1_655  S
Zr591       O593   2.455   1_565  S
Zr591       O599   2.406       .  S
Zr591       O600   2.332   1_655  S
Zr591       O603   2.348       .  S
Zr591       O601   2.372       .  S
O592        H612   0.989       .  S
O592        H617   0.990       .  S
O593        H613   0.990   1_545  S
Zr594       O595   2.434       .  S
Zr594       O596   2.434       .  S
Zr594       O600   2.420       .  S
Zr594       O599   2.329   1_455  S
Zr594       O604   2.297       .  S
Zr594       O602   2.420       .  S
O595        H611   0.990       .  S
O596        H610   0.990       .  S
O596        H620   0.990       .  S
Zr597       O600   2.377       .  S
Zr597       O602   2.432       .  S
Zr597       O603   2.377   1_455  S
Zr598       O599   2.407       .  S
Zr598       O601   2.366       .  S
Zr598       O604   2.383   1_655  S
O599        H607   0.965       .  S
O602        H606   0.965       .  S
O603        H608   0.965       .  S
O621       Zr633   2.423       .  S
O621        C623   1.267       .  A
O622       Zr659   2.480       .  S
O622        C623   1.281       .  A
C623       C1344   1.491       .  S
O624       Zr636   2.392       .  S
O624        C626   1.277       .  A
O625       Zr660   2.476       .  S
O625        C626   1.296       .  A
C626       C1124   1.471       .  S
O627       Zr636   2.517       .  S
O627        C629   1.304       .  A
O628       Zr659   2.434       .  S
O628        C629   1.291       .  A
C629       C1257   1.519       .  S
O630       Zr633   2.412       .  S
O630        C632   1.278       .  A
O631       Zr660   2.408       .  S
O631        C632   1.283       .  A
C632       C1227   1.450       .  S
Zr633       O634   2.435       .  S
Zr633       O635   2.436       .  S
Zr633       O639   2.369       .  S
Zr633       O640   2.368       .  S
Zr633       O663   2.355       .  S
Zr633       O665   2.372       .  S
O634        H677   0.989       .  S
O635        H676   0.990       .  S
O635        H680   0.990       .  S
Zr636       O637   2.435       .  S
Zr636       O638   2.434       .  S
Zr636       O640   2.421       .  S
Zr636       O639   2.312       .  S
Zr636       O664   2.344       .  S
Zr636       O666   2.388       .  S
O637        H678   0.990       .  S
O637        H681   0.990       .  S
O638        H671   0.990       .  S
O639       Zr659   2.379       .  S
O640       Zr660   2.403       .  S
O640        H667   0.966       .  S
O641       Zr653   2.384       .  S
O641        C643   1.262       .  A
O642       Zr660   2.514       .  S
O642        C643   1.287       .  A
C643       C1094   1.506       .  S
O644       Zr656   2.430       .  S
O644        C646   1.288       .  A
O645       Zr659   2.403       .  S
O645        C646   1.287       .  A
C646       C1214   1.435       .  S
O647       Zr656   2.619       .  S
O647        C649   1.323       .  A
O648       Zr660   2.328       .  S
O648        C649   1.273       .  A
C649       C1107   1.524       .  S
O650       Zr653   2.411       .  S
O650        C652   1.277       .  A
O651       Zr659   2.517       .  S
O651        C652   1.304       .  A
C652       C1114   1.507       .  S
Zr653       O654   2.435       .  S
Zr653       O655   2.433       .  S
Zr653       O661   2.390       .  S
Zr653       O662   2.341       .  S
Zr653       O665   2.355       .  S
Zr653       O663   2.380       .  S
O654        H674   0.987       .  S
O654        H679   0.988       .  S
O655        H675   0.990       .  S
Zr656       O657   2.435       .  S
Zr656       O658   2.433       .  S
Zr656       O662   2.431       .  S
Zr656       O661   2.311       .  S
Zr656       O666   2.326       .  S
Zr656       O664   2.407       .  S
O657        H673   0.990       .  S
O658        H672   0.990       .  S
O658        H682   0.990       .  S
Zr659       O662   2.409       .  S
Zr659       O664   2.429       .  S
Zr659       O665   2.406       .  S
Zr660       O661   2.405       .  S
Zr660       O663   2.381       .  S
Zr660       O666   2.384       .  S
O661        H669   0.963       .  S
O664        H668   0.965       .  S
O665        H670   0.964       .  S
O683       Zr695   2.394       .  S
O683        C685   1.261       .  A
O684       Zr721   2.548       .  S
O684        C685   1.299       .  A
C685       C1307   1.514       .  S
O686       Zr698   2.388       .  S
O686        C688   1.278       .  A
O687       Zr722   2.545       .  S
O687        C688   1.312       .  A
C688       C1117   1.500       .  S
O689       Zr698   2.566       .  S
O689        C691   1.313       .  A
O690       Zr721   2.316       .  S
O690        C691   1.271       .  A
C691       C1234   1.491       .  S
O692       Zr695   2.390       .  S
O692        C694   1.274       .  A
O693       Zr722   2.497       .  S
O693        C694   1.300       .  A
C694       C1164   1.483       .  S
Zr695       O696   2.436       .  S
Zr695       O697   2.437       .  S
Zr695       O701   2.375       .  S
Zr695       O702   2.381       .  S
Zr695       O725   2.349       .  S
Zr695       O727   2.386       .  S
O696        H739   0.988       .  S
O697        H738   0.990       .  S
O697        H742   0.990       .  S
Zr698       O699   2.433       .  S
Zr698       O700   2.434       .  S
Zr698       O702   2.438       .  S
Zr698       O701   2.294       .  S
Zr698       O726   2.334       .  S
Zr698       O728   2.396       .  S
O699        H740   0.990       .  S
O699        H743   0.990       .  S
O700        H733   0.990       .  S
O701       Zr721   2.362       .  S
O702       Zr722   2.413       .  S
O702        H729   0.966       .  S
O703       Zr715   2.384       .  S
O703        C705   1.263       .  A
O704       Zr722   2.528       .  S
O704        C705   1.290       .  A
C705       C1074   1.518       .  S
O706       Zr718   2.411       .  S
O706        C708   1.285       .  A
O707       Zr721   2.482       .  S
O707        C708   1.299       .  A
C708       C1157   1.473       .  S
O709       Zr718   2.591       .  S
O709        C711   1.317       .  A
O710       Zr722   2.344       .  S
O710        C711   1.276       .  A
C711       C1084   1.507       .  S
O712       Zr715   2.420       .  S
O712        C714   1.281       .  A
O713       Zr721   2.446       .  S
O713        C714   1.290       .  A
C714       C1127   1.467   1_565  S
Zr715       O716   2.435       .  S
Zr715       O717   2.432       .  S
Zr715       O723   2.390       .  S
Zr715       O724   2.347       .  S
Zr715       O727   2.351       .  S
Zr715       O725   2.396       .  S
O716        H736   0.987       .  S
O716        H741   0.988       .  S
O717        H737   0.990       .  S
Zr718       O719   2.436       .  S
Zr718       O720   2.434       .  S
Zr718       O724   2.427       .  S
Zr718       O723   2.301       .  S
Zr718       O728   2.328       .  S
Zr718       O726   2.405       .  S
O719        H735   0.990       .  S
O720        H734   0.990       .  S
O720        H744   0.990       .  S
Zr721       O724   2.396       .  S
Zr721       O726   2.410       .  S
Zr721       O727   2.385       .  S
Zr722       O723   2.422       .  S
Zr722       O725   2.398       .  S
Zr722       O728   2.392       .  S
O723        H731   0.961       .  S
O726        H730   0.965       .  S
O727        H732   0.964       .  S
O745       Zr757   2.472   1_455  S
O745        C747   1.292       .  A
O746       Zr783   2.342       .  S
O746        C747   1.273       .  A
C747       C1617   1.447       .  S
O748       Zr760   2.403       .  S
O748        C750   1.280       .  A
O749       Zr784   2.431       .  S
O749        C750   1.289       .  A
C750       C1037   1.458       .  S
O751       Zr760   2.386       .  S
O751        C753   1.280       .  A
O752       Zr783   2.481   1_655  S
O752        C753   1.297       .  A
C753       C1487   1.482       .  S
O754       Zr757   2.399   1_565  S
O754        C756   1.275       .  A
O755       Zr784   2.512   1_565  S
O755        C756   1.298       .  A
C756       C1054   1.488       .  S
Zr757       O758   2.434       .  S
Zr757       O759   2.438   1_655  S
Zr757       O763   2.338       .  S
Zr757       O764   2.396       .  S
Zr757       O787   2.382       .  S
Zr757       O789   2.351   1_655  S
O758        H801   0.990       .  S
O759        H800   0.990   1_545  S
O759        H804   0.990   1_545  S
Zr760       O761   2.437       .  S
Zr760       O762   2.434       .  S
Zr760       O764   2.360       .  S
Zr760       O763   2.368       .  S
Zr760       O788   2.354       .  S
Zr760       O790   2.353       .  S
O761        H802   0.990       .  S
O761        H805   0.990       .  S
O762        H795   0.990       .  S
O763       Zr783   2.386   1_655  S
O764       Zr784   2.403       .  S
O764        H791   0.966       .  S
O765       Zr777   2.565       .  S
O765        C767   1.314   1_455  A
O766       Zr784   2.333       .  S
O766        C767   1.274       .  A
C767       C1134   1.485   1_545  S
O768       Zr780   2.429       .  S
O768        C770   1.284       .  A
O769       Zr783   2.452       .  S
O769        C770   1.291   1_455  A
C770       C1064   1.496       .  S
O771       Zr780   2.399       .  S
O771        C773   1.265       .  A
O772       Zr784   2.523       .  S
O772        C773   1.289       .  A
C773       C1184   1.515       .  S
O774       Zr777   2.381       .  S
O774        C776   1.278       .  A
O775       Zr783   2.482       .  S
O775        C776   1.298       .  A
C776       C1047   1.465       .  S
Zr777       O778   2.437       .  S
Zr777       O779   2.434       .  S
Zr777       O785   2.294   1_455  S
Zr777       O786   2.427       .  S
Zr777       O789   2.395       .  S
Zr777       O787   2.315   1_455  S
O778        H798   0.990       .  S
O778        H803   0.990       .  S
O779        H799   0.990       .  S
Zr780       O781   2.424   1_655  S
Zr780       O782   2.437       .  S
Zr780       O786   2.362   1_655  S
Zr780       O785   2.399       .  S
Zr780       O790   2.390       .  S
Zr780       O788   2.340       .  S
O781        H797   0.990       .  S
O782        H796   0.989       .  S
O782        H806   0.987       .  S
Zr783       O786   2.381       .  S
Zr783       O788   2.362   1_455  S
Zr783       O789   2.402       .  S
Zr784       O785   2.408       .  S
Zr784       O787   2.367       .  S
Zr784       O790   2.399       .  S
O785        H793   0.960       .  S
O788        H792   0.964       .  S
O789        H794   0.965       .  S
O807       Zr819   2.554       .  S
O807        C809   1.310       .  A
O808       Zr845   2.370       .  S
O808        C809   1.276       .  A
C809       C1534   1.518       .  S
O810       Zr822   2.413       .  S
O810        C812   1.279       .  A
O811       Zr846   2.418       .  S
O811        C812   1.285       .  A
C812       C1017   1.467       .  S
O813       Zr822   2.394       .  S
O813        C815   1.274       .  A
O814       Zr845   2.481       .  S
O814        C815   1.290   1_455  A
C815       C1427   1.464       .  S
O816       Zr819   2.430   1_655  S
O816        C818   1.287       .  A
O817       Zr846   2.472       .  S
O817        C818   1.296       .  A
C818       C1067   1.497       .  S
Zr819       O820   2.434   1_455  S
Zr819       O821   2.436       .  S
Zr819       O825   2.314   1_455  S
Zr819       O826   2.422   1_455  S
Zr819       O849   2.391       .  S
Zr819       O851   2.356       .  S
O820        H863   0.990       .  S
O821        H862   0.990       .  S
O821        H866   0.990       .  S
Zr822       O823   2.439       .  S
Zr822       O824   2.438       .  S
Zr822       O826   2.367       .  S
Zr822       O825   2.365       .  S
Zr822       O850   2.360       .  S
Zr822       O852   2.354       .  S
O823        H864   0.990       .  S
O823        H867   0.990       .  S
O824        H857   0.990       .  S
O825       Zr845   2.369   1_655  S
O826       Zr846   2.406       .  S
O826        H853   0.966       .  S
O827       Zr839   2.612       .  S
O827        C829   1.321   1_455  A
O828       Zr846   2.330       .  S
O828        C829   1.271       .  A
C829       C1174   1.523       .  S
O830       Zr842   2.431   1_455  S
O830        C832   1.280       .  A
O831       Zr845   2.446       .  S
O831        C832   1.288       .  A
C832       C1057   1.472       .  S
O833       Zr842   2.388       .  S
O833        C835   1.265       .  A
O834       Zr846   2.509       .  S
O834        C835   1.284       .  A
C835       C1147   1.510       .  S
O836       Zr839   2.414       .  S
O836        C838   1.285       .  A
O837       Zr845   2.441       .  S
O837        C838   1.292       .  A
C838       C1024   1.460       .  S
Zr839       O840   2.436       .  S
Zr839       O841   2.434       .  S
Zr839       O847   2.313   1_455  S
Zr839       O848   2.440       .  S
Zr839       O851   2.422       .  S
Zr839       O849   2.325       .  S
O840        H860   0.990       .  S
O840        H865   0.990       .  S
O841        H861   0.990       .  S
Zr842       O843   2.432   1_655  S
Zr842       O844   2.443       .  S
Zr842       O848   2.364   1_655  S
Zr842       O847   2.401       .  S
Zr842       O852   2.402       .  S
Zr842       O850   2.357       .  S
O843        H859   0.990       .  S
O844        H858   0.990       .  S
O844        H868   0.991       .  S
Zr845       O848   2.397       .  S
Zr845       O850   2.377   1_455  S
Zr845       O851   2.413       .  S
Zr846       O847   2.411       .  S
Zr846       O849   2.375   1_655  S
Zr846       O852   2.390       .  S
O847        H855   0.963       .  S
O850        H854   0.962       .  S
O851        H856   0.965       .  S
O869       Zr881   2.510       .  S
O869        C871   1.300       .  A
O870       Zr907   2.417       .  S
O870        C871   1.288       .  A
C871       C1477   1.495       .  S
O872       Zr884   2.406       .  S
O872        C874   1.274       .  A
O873       Zr908   2.460       .  S
O873        C874   1.291       .  A
C874       C1044   1.472       .  S
O875       Zr884   2.409       .  S
O875        C877   1.265       .  A
O876       Zr907   2.497       .  S
O876        C877   1.292       .  A
C877       C1627   1.498       .  S
O878       Zr881   2.397   1_565  S
O878        C880   1.273       .  A
O879       Zr908   2.552   1_565  S
O879        C880   1.308       .  A
C880        C994   1.521       .  S
Zr881       O882   2.431   1_545  S
Zr881       O883   2.438   1_545  S
Zr881       O887   2.322       .  S
Zr881       O888   2.426       .  S
Zr881       O911   2.384   1_545  S
Zr881       O913   2.353       .  S
O882        H925   0.990       .  S
O883        H924   0.990       .  S
O883        H928   0.990       .  S
Zr884       O885   2.440       .  S
Zr884       O886   2.436       .  S
Zr884       O888   2.377       .  S
Zr884       O887   2.381       .  S
Zr884       O912   2.383       .  S
Zr884       O914   2.350       .  S
O885        H926   0.988       .  S
O885        H929   0.989       .  S
O886        H919   0.990       .  S
O887       Zr907   2.382       .  S
O888       Zr908   2.413       .  S
O888        H915   0.966       .  S
O889       Zr901   2.618   1_565  S
O889        C891   1.323       .  A
O890       Zr908   2.303   1_565  S
O890        C891   1.271       .  A
C891       C1077   1.510       .  S
O892       Zr904   2.405       .  S
O892        C894   1.277       .  A
O893       Zr907   2.499       .  S
O893        C894   1.300       .  A
C894       C1004   1.505       .  S
O895       Zr904   2.379       .  S
O895        C897   1.261       .  A
O896       Zr908   2.553       .  S
O896        C897   1.295       .  A
C897       C1104   1.525       .  S
O898       Zr901   2.416       .  S
O898        C900   1.286       .  A
O899       Zr907   2.446       .  S
O899        C900   1.294       .  A
C900       C1034   1.456       .  S
Zr901       O902   2.436       .  S
Zr901       O903   2.434   1_545  S
Zr901       O909   2.303       .  S
Zr901       O910   2.429       .  S
Zr901       O913   2.407       .  S
Zr901       O911   2.317   1_545  S
O902        H922   0.990       .  S
O902        H927   0.990       .  S
O903        H923   0.990       .  S
Zr904       O905   2.430       .  S
Zr904       O906   2.439       .  S
Zr904       O910   2.344       .  S
Zr904       O909   2.393       .  S
Zr904       O914   2.369       .  S
Zr904       O912   2.353       .  S
O905        H921   0.990       .  S
O906        H920   0.989       .  S
O906        H930   0.989       .  S
Zr907       O910   2.402       .  S
Zr907       O912   2.392       .  S
Zr907       O913   2.426       .  S
Zr908       O909   2.420       .  S
Zr908       O911   2.384   1_545  S
Zr908       O914   2.389       .  S
O909        H917   0.963       .  S
O912        H916   0.964       .  S
O913        H918   0.965       .  S
O931       Zr943   2.459       .  S
O931        C933   1.290       .  A
O932       Zr969   2.413       .  S
O932        C933   1.289       .  A
C933       C1417   1.467       .  S
O934       Zr946   2.416       .  S
O934        C936   1.276       .  A
O935       Zr970   2.419       .  S
O935        C936   1.283       .  A
C936       C1027   1.477       .  S
O937       Zr946   2.438       .  S
O937        C939   1.282       .  A
O938       Zr969   2.504       .  S
O938        C939   1.297       .  A
C939       C1547   1.490       .  S
O940       Zr943   2.374       .  S
O940        C942   1.275       .  A
O941       Zr970   2.513       .  S
O941        C942   1.305       .  A
C942       C1007   1.493       .  S
Zr943       O944   2.435       .  S
Zr943       O945   2.438       .  S
Zr943       O949   2.324       .  S
Zr943       O950   2.400       .  S
Zr943       O973   2.365       .  S
Zr943       O975   2.342       .  S
O944        H987   0.990       .  S
O945        H986   0.990       .  S
O945        H990   0.990       .  S
Zr946       O947   2.442       .  S
Zr946       O948   2.437       .  S
Zr946       O950   2.391       .  S
Zr946       O949   2.350       .  S
Zr946       O974   2.367       .  S
Zr946       O976   2.357       .  S
O947        H988   0.989       .  S
O947        H991   0.990       .  S
O948        H981   0.990       .  S
O949       Zr969   2.361       .  S
O950       Zr970   2.408       .  S
O950        H977   0.966       .  S
O951       Zr963   2.580       .  S
O951        C953   1.315       .  A
O952       Zr970   2.327       .  S
O952        C953   1.272       .  A
C953       C1097   1.496       .  S
O954       Zr966   2.414       .  S
O954        C956   1.273       .  A
O955       Zr969   2.518       .  S
O955        C956   1.301       .  A
C956        C997   1.520       .  S
O957       Zr966   2.399       .  S
O957        C959   1.267       .  A
O958       Zr970   2.515       .  S
O958        C959   1.290       .  A
C959       C1087   1.510       .  S
O960       Zr963   2.424       .  S
O960        C962   1.287       .  A
O961       Zr969   2.445       .  S
O961        C962   1.294       .  A
C962       C1014   1.467       .  S
Zr963       O964   2.436       .  S
Zr963       O965   2.434       .  S
Zr963       O971   2.304       .  S
Zr963       O972   2.416       .  S
Zr963       O975   2.388       .  S
Zr963       O973   2.340       .  S
O964        H984   0.990       .  S
O964        H989   0.990       .  S
O965        H985   0.990       .  S
Zr966       O967   2.431       .  S
Zr966       O968   2.435       .  S
Zr966       O972   2.365       .  S
Zr966       O971   2.393       .  S
Zr966       O976   2.384       .  S
Zr966       O974   2.379       .  S
O967        H983   0.990       .  S
O968        H982   0.990       .  S
O968        H992   0.990       .  S
Zr969       O972   2.401       .  S
Zr969       O974   2.402       .  S
Zr969       O975   2.420       .  S
Zr970       O971   2.414       .  S
Zr970       O973   2.384       .  S
Zr970       O976   2.402       .  S
O971        H979   0.960       .  S
O974        H978   0.964       .  S
O975        H980   0.965       .  S
C993        C994   1.424       .  A
C993        C998   1.414       .  A
C993       F1000   1.358       .  S
C994        C995   1.405       .  A
C995        C996   1.412       .  A
C995       F1002   1.353       .  S
C996        C997   1.423       .  A
C996       F1001   1.358       .  S
C997        C998   1.408       .  A
C998        F999   1.357       .  S
C1003      C1004   1.423       .  A
C1003      C1008   1.405       .  A
C1003      F1010   1.358       .  S
C1004      C1005   1.408       .  A
C1005      C1006   1.408       .  A
C1005      F1012   1.357       .  S
C1006      C1007   1.417       .  A
C1006      F1011   1.358       .  S
C1007      C1008   1.399       .  A
C1008      F1009   1.354       .  S
C1013      C1014   1.409       .  A
C1013      C1018   1.394       .  A
C1013      F1020   1.358       .  S
C1014      C1015   1.401       .  A
C1015      C1016   1.397       .  A
C1015      F1022   1.358       .  S
C1016      C1017   1.410       .  A
C1016      F1021   1.358       .  S
C1017      C1018   1.400       .  A
C1018      F1019   1.358       .  S
C1023      C1024   1.403       .  A
C1023      C1028   1.396       .  A
C1023      F1030   1.358       .  S
C1024      C1025   1.402       .  A
C1025      C1026   1.394       .  A
C1025      F1032   1.359       .  S
C1026      C1027   1.410       .  A
C1026      F1031   1.358       .  S
C1027      C1028   1.410       .  A
C1028      F1029   1.358       .  S
C1033      C1034   1.400       .  A
C1033      C1038   1.396       .  A
C1033      F1040   1.358       .  S
C1034      C1035   1.405       .  A
C1035      C1036   1.393       .  A
C1035      F1042   1.358       .  S
C1036      C1037   1.400       .  A
C1036      F1041   1.358       .  S
C1037      C1038   1.407       .  A
C1038      F1039   1.358       .  S
C1043      C1044   1.399       .  A
C1043      C1048   1.395       .  A
C1043      F1050   1.358       .  S
C1044      C1045   1.415       .  A
C1045      C1046   1.401       .  A
C1045      F1052   1.358       .  S
C1046      C1047   1.398       .  A
C1046      F1051   1.358       .  S
C1047      C1048   1.411       .  A
C1048      F1049   1.359       .  S
C1053      C1054   1.412   1_455  A
C1053      C1058   1.400       .  A
C1053      F1060   1.349       .  S
C1054      C1055   1.406       .  A
C1055      C1056   1.402       .  A
C1055      F1062   1.358       .  S
C1056      C1057   1.409   1_655  A
C1056      F1061   1.357       .  S
C1057      C1058   1.399       .  A
C1058      F1059   1.358       .  S
C1063      C1064   1.409   1_455  A
C1063      C1068   1.404   1_455  A
C1063      F1070   1.358       .  S
C1064      C1065   1.414       .  A
C1065      C1066   1.398       .  A
C1065      F1072   1.357       .  S
C1066      C1067   1.407       .  A
C1066      F1071   1.356       .  S
C1067      C1068   1.415       .  A
C1068      F1069   1.358   1_655  S
C1073      C1074   1.423       .  A
C1073      C1078   1.429       .  A
C1073      F1080   1.355       .  S
C1074      C1075   1.405       .  A
C1075      C1076   1.396       .  A
C1075      F1082   1.359       .  S
C1076      C1077   1.415       .  A
C1076      F1081   1.358       .  S
C1077      C1078   1.414       .  A
C1078      F1079   1.357       .  S
C1083      C1084   1.412       .  A
C1083      C1088   1.423       .  A
C1083      F1090   1.355       .  S
C1084      C1085   1.413       .  A
C1085      C1086   1.398       .  A
C1085      F1092   1.354       .  S
C1086      C1087   1.406       .  A
C1086      F1091   1.359       .  S
C1087      C1088   1.421       .  A
C1088      F1089   1.355       .  S
C1093      C1094   1.417       .  A
C1093      C1098   1.424       .  A
C1093      F1100   1.356       .  S
C1094      C1095   1.407       .  A
C1095      C1096   1.397       .  A
C1095      F1102   1.359       .  S
C1096      C1097   1.410       .  A
C1096      F1101   1.357       .  S
C1097      C1098   1.413       .  A
C1098      F1099   1.357       .  S
C1103      C1104   1.409       .  A
C1103      C1108   1.402       .  A
C1103      F1110   1.359       .  S
C1104      C1105   1.422       .  A
C1105      C1106   1.434       .  A
C1105      F1112   1.356       .  S
C1106      C1107   1.419       .  A
C1106      F1111   1.355       .  S
C1107      C1108   1.415       .  A
C1108      F1109   1.359       .  S
C1113      C1114   1.410       .  A
C1113      C1118   1.413       .  A
C1113      F1120   1.357       .  S
C1114      C1115   1.419       .  A
C1115      C1116   1.408       .  A
C1115      F1122   1.358       .  S
C1116      C1117   1.400       .  A
C1116      F1121   1.351       .  S
C1117      C1118   1.417       .  A
C1118      F1119   1.358       .  S
C1123      C1124   1.408       .  A
C1123      C1128   1.401       .  A
C1123      F1130   1.358       .  S
C1124      C1125   1.403       .  A
C1125      C1126   1.396       .  A
C1125      F1132   1.352       .  S
C1126      C1127   1.403       .  A
C1126      F1131   1.358       .  S
C1127      C1128   1.405       .  A
C1128      F1129   1.358       .  S
C1133      C1134   1.381       .  A
C1133      C1138   1.388       .  A
C1133      F1140   1.356   1_565  S
C1134      C1135   1.424       .  A
C1135      C1136   1.421       .  A
C1135      F1142   1.356       .  S
C1136      C1137   1.407       .  A
C1136      F1141   1.355       .  S
C1137      C1138   1.414       .  A
C1138      F1139   1.335       .  S
C1143      C1144   1.407       .  A
C1143      C1148   1.395       .  A
C1143      F1150   1.352       .  S
C1144      C1145   1.417       .  A
C1145      C1146   1.429       .  A
C1145      F1152   1.357   1_655  S
C1146      C1147   1.420       .  A
C1146      F1151   1.357       .  S
C1147      C1148   1.402       .  A
C1148      F1149   1.359       .  S
C1153      C1154   1.402       .  A
C1153      C1158   1.396       .  A
C1153      F1160   1.358       .  S
C1154      C1155   1.414       .  A
C1155      C1156   1.402       .  A
C1155      F1162   1.358       .  S
C1156      C1157   1.400       .  A
C1156      F1161   1.357       .  S
C1157      C1158   1.410       .  A
C1158      F1159   1.359       .  S
C1163      C1164   1.409       .  A
C1163      C1168   1.408       .  A
C1163      F1170   1.358       .  S
C1164      C1165   1.406       .  A
C1165      C1166   1.409       .  A
C1165      F1172   1.358       .  S
C1166      C1167   1.413       .  A
C1166      F1171   1.358       .  S
C1167      C1168   1.407       .  A
C1168      F1169   1.355       .  S
C1173      C1174   1.416       .  A
C1173      C1178   1.400       .  A
C1173      F1180   1.358       .  S
C1174      C1175   1.418   1_655  A
C1175      C1176   1.436   1_455  A
C1175      F1182   1.356       .  S
C1176      C1177   1.423       .  A
C1176      F1181   1.356   1_655  S
C1177      C1178   1.407       .  A
C1178      F1179   1.359       .  S
C1183      C1184   1.417       .  A
C1183      C1188   1.428       .  A
C1183      F1190   1.351       .  S
C1184      C1185   1.400       .  A
C1185      C1186   1.395       .  A
C1185      F1192   1.357       .  S
C1186      C1187   1.411       .  A
C1186      F1191   1.348       .  S
C1187      C1188   1.417       .  A
C1188      F1189   1.355   1_655  S
C1193      C1194   1.415   1_655  A
C1193      C1198   1.390       .  A
C1193      F1200   1.358       .  S
C1194      C1195   1.392       .  A
C1195      C1196   1.395       .  A
C1195      F1202   1.358       .  S
C1196      C1197   1.416   1_455  A
C1196      F1201   1.358       .  S
C1197      C1198   1.391       .  A
C1198      F1199   1.358       .  S
C1203      C1204   1.405   1_655  A
C1203      C1208   1.401       .  A
C1203      F1210   1.358       .  S
C1204      C1205   1.403       .  A
C1205      C1206   1.395       .  A
C1205      F1212   1.358       .  S
C1206      C1207   1.403   1_455  A
C1206      F1211   1.357       .  S
C1207      C1208   1.404       .  A
C1208      F1209   1.357       .  S
C1213      C1214   1.398       .  A
C1213      C1218   1.390       .  A
C1213      F1220   1.358       .  S
C1214      C1215   1.400       .  A
C1215      C1216   1.386       .  A
C1215      F1222   1.359       .  S
C1216      C1217   1.398       .  A
C1216      F1221   1.358       .  S
C1217      C1218   1.401       .  A
C1218      F1219   1.358       .  S
C1223      C1224   1.404       .  A
C1223      C1228   1.383       .  A
C1223      F1230   1.359       .  S
C1224      C1225   1.397       .  A
C1225      C1226   1.396       .  A
C1225      F1232   1.358       .  S
C1226      C1227   1.410       .  A
C1226      F1231   1.358       .  S
C1227      C1228   1.397       .  A
C1228      F1229   1.359       .  S
C1233      C1234   1.423       .  A
C1233      C1238   1.404       .  A
C1233      F1240   1.359       .  S
C1234      C1235   1.398       .  A
C1235      C1236   1.402       .  A
C1235      F1242   1.357       .  S
C1236      C1237   1.421       .  A
C1236      F1241   1.357       .  S
C1237      C1238   1.397       .  A
C1238      F1239   1.358       .  S
C1243      C1244   1.409       .  A
C1243      C1248   1.416       .  A
C1243      F1250   1.356       .  S
C1244      C1245   1.420       .  A
C1245      C1246   1.418       .  A
C1245      F1252   1.357       .  S
C1246      C1247   1.412       .  A
C1246      F1251   1.356       .  S
C1247      C1248   1.423       .  A
C1248      F1249   1.356       .  S
C1253      C1254   1.417       .  A
C1253      C1258   1.411       .  A
C1253      F1260   1.358       .  S
C1254      C1255   1.408       .  A
C1255      C1256   1.416       .  A
C1255      F1262   1.357       .  S
C1256      C1257   1.420       .  A
C1256      F1261   1.357       .  S
C1257      C1258   1.410       .  A
C1258      F1259   1.358       .  S
C1263      C1264   1.406       .  A
C1263      C1268   1.399       .  A
C1263      F1270   1.359       .  S
C1264      C1265   1.413       .  A
C1265      C1266   1.411       .  A
C1265      F1272   1.355   1_655  S
C1266      C1267   1.411       .  A
C1266      F1271   1.357       .  S
C1267      C1268   1.416       .  A
C1268      F1269   1.358       .  S
C1273      C1274   1.402       .  A
C1273      C1278   1.397       .  A
C1273      F1280   1.358       .  S
C1274      C1275   1.409       .  A
C1275      C1276   1.409       .  A
C1275      F1282   1.358       .  S
C1276      C1277   1.410       .  A
C1276      F1281   1.357       .  S
C1277      C1278   1.416       .  A
C1278      F1279   1.357       .  S
C1283      C1284   1.413       .  A
C1283      C1288   1.404       .  A
C1283      F1290   1.358       .  S
C1284      C1285   1.405       .  A
C1285      C1286   1.405       .  A
C1285      F1292   1.358       .  S
C1286      C1287   1.414       .  A
C1286      F1291   1.358       .  S
C1287      C1288   1.406       .  A
C1288      F1289   1.358       .  S
C1293      C1294   1.397       .  A
C1293      C1298   1.406       .  A
C1293      F1300   1.358       .  S
C1294      C1295   1.424       .  A
C1295      C1296   1.405       .  A
C1295      F1302   1.359       .  S
C1296      C1297   1.398       .  A
C1296      F1301   1.357       .  S
C1297      C1298   1.422       .  A
C1298      F1299   1.358       .  S
C1303      C1304   1.410       .  A
C1303      C1308   1.409       .  A
C1303      F1310   1.356       .  S
C1304      C1305   1.419       .  A
C1305      C1306   1.415       .  A
C1305      F1312   1.358       .  S
C1306      C1307   1.410       .  A
C1306      F1311   1.354       .  S
C1307      C1308   1.417       .  A
C1308      F1309   1.357       .  S
C1313      C1314   1.414       .  A
C1313      C1318   1.407       .  A
C1313      F1320   1.358       .  S
C1314      C1315   1.406       .  A
C1315      C1316   1.406       .  A
C1315      F1322   1.357       .  S
C1316      C1317   1.414       .  A
C1316      F1321   1.358       .  S
C1317      C1318   1.406       .  A
C1318      F1319   1.358       .  S
C1323      C1324   1.399       .  A
C1323      C1328   1.406       .  A
C1323      F1330   1.354       .  S
C1324      C1325   1.416       .  A
C1325      C1326   1.405       .  A
C1325      F1332   1.358       .  S
C1326      C1327   1.402       .  A
C1326      F1331   1.358       .  S
C1327      C1328   1.418       .  A
C1328      F1329   1.359       .  S
C1333      C1334   1.414       .  A
C1333      C1338   1.417       .  A
C1333      F1340   1.357       .  S
C1334      C1335   1.402       .  A
C1335      C1336   1.396       .  A
C1335      F1342   1.355       .  S
C1336      C1337   1.410       .  A
C1336      F1341   1.357       .  S
C1337      C1338   1.412       .  A
C1338      F1339   1.357       .  S
C1343      C1344   1.399       .  A
C1343      C1348   1.382       .  A
C1343      F1350   1.359       .  S
C1344      C1345   1.418       .  A
C1345      C1346   1.422       .  A
C1345      F1352   1.357       .  S
C1346      C1347   1.411       .  A
C1346      F1351   1.357       .  S
C1347      C1348   1.414       .  A
C1348      F1349   1.361       .  S
C1353      C1354   1.422       .  A
C1353      C1358   1.403       .  A
C1353      F1360   1.358       .  S
C1354      C1355   1.407       .  A
C1355      C1356   1.403       .  A
C1355      F1362   1.357       .  S
C1356      C1357   1.413       .  A
C1356      F1361   1.358       .  S
C1357      C1358   1.400       .  A
C1358      F1359   1.358       .  S
C1363      C1364   1.426   1_455  A
C1363      C1368   1.406       .  A
C1363      F1370   1.358   1_455  S
C1364      C1365   1.411   1_655  A
C1365      C1366   1.416       .  A
C1365      F1372   1.357   1_455  S
C1366      C1367   1.416       .  A
C1366      F1371   1.357       .  S
C1367      C1368   1.400       .  A
C1368      F1369   1.358       .  S
C1373      C1374   1.397       .  A
C1373      C1378   1.395       .  A
C1373      F1380   1.358       .  S
C1374      C1375   1.396       .  A
C1375      C1376   1.387       .  A
C1375      F1382   1.359       .  S
C1376      C1377   1.412       .  A
C1376      F1381   1.359       .  S
C1377      C1378   1.411       .  A
C1378      F1379   1.358       .  S
C1383      C1384   1.416       .  A
C1383      C1388   1.401       .  A
C1383      F1390   1.358       .  S
C1384      C1385   1.398       .  A
C1385      C1386   1.400       .  A
C1385      F1392   1.358       .  S
C1386      C1387   1.414       .  A
C1386      F1391   1.358       .  S
C1387      C1388   1.396       .  A
C1388      F1389   1.357       .  S
C1393      C1394   1.397       .  A
C1393      C1398   1.391   1_556  A
C1393      F1400   1.355       .  S
C1394      C1395   1.404   1_556  A
C1395      C1396   1.407       .  A
C1395      F1402   1.354       .  S
C1396      C1397   1.411       .  A
C1396      F1401   1.356       .  S
C1397      C1398   1.411       .  A
C1398      F1399   1.359   1_554  S
C1403      C1404   1.405       .  A
C1403      C1408   1.401       .  A
C1403      F1410   1.358       .  S
C1404      C1405   1.402       .  A
C1405      C1406   1.394       .  A
C1405      F1412   1.358       .  S
C1406      C1407   1.406   1_554  A
C1406      F1411   1.358   1_554  S
C1407      C1408   1.407   1_556  A
C1408      F1409   1.358       .  S
C1413      C1414   1.415       .  A
C1413      C1418   1.392       .  A
C1413      F1420   1.358       .  S
C1414      C1415   1.412       .  A
C1415      C1416   1.403       .  A
C1415      F1422   1.357       .  S
C1416      C1417   1.403       .  A
C1416      F1421   1.356       .  S
C1417      C1418   1.398       .  A
C1418      F1419   1.359       .  S
C1423      C1424   1.409       .  A
C1423      C1428   1.398       .  A
C1423      F1430   1.358       .  S
C1424      C1425   1.399       .  A
C1425      C1426   1.401       .  A
C1425      F1432   1.357       .  S
C1426      C1427   1.411       .  A
C1426      F1431   1.356       .  S
C1427      C1428   1.401       .  A
C1428      F1429   1.355   1_655  S
C1433      C1434   1.416   1_556  A
C1433      C1438   1.397       .  A
C1433      F1440   1.359       .  S
C1434      C1435   1.410   1_545  A
C1435      C1436   1.409       .  A
C1435      F1442   1.357       .  S
C1436      C1437   1.409   1_554  A
C1436      F1441   1.358       .  S
C1437      C1438   1.399   1_565  A
C1438      F1439   1.359       .  S
C1443      C1444   1.402       .  A
C1443      C1448   1.398   1_554  A
C1443      F1450   1.358       .  S
C1444      C1445   1.420       .  A
C1445      C1446   1.417       .  A
C1445      F1452   1.357       .  S
C1446      C1447   1.406   1_554  A
C1446      F1451   1.357       .  S
C1447      C1448   1.410       .  A
C1448      F1449   1.355       .  S
C1453      C1454   1.408       .  A
C1453      C1458   1.372       .  A
C1453      F1460   1.360       .  S
C1454      C1455   1.403       .  A
C1455      C1456   1.386       .  A
C1455      F1462   1.358       .  S
C1456      C1457   1.405       .  A
C1456      F1461   1.359       .  S
C1457      C1458   1.400       .  A
C1458      F1459   1.358       .  S
C1463      C1464   1.408       .  A
C1463      C1468   1.388       .  A
C1463      F1470   1.359       .  S
C1464      C1465   1.396       .  A
C1465      C1466   1.373       .  A
C1465      F1472   1.359       .  S
C1466      C1467   1.413       .  A
C1466      F1471   1.360       .  S
C1467      C1468   1.399       .  A
C1468      F1469   1.358       .  S
C1473      C1474   1.414       .  A
C1473      C1478   1.400       .  A
C1473      F1480   1.358       .  S
C1474      C1475   1.414       .  A
C1475      C1476   1.415       .  A
C1475      F1482   1.357       .  S
C1476      C1477   1.411       .  A
C1476      F1481   1.355       .  S
C1477      C1478   1.404       .  A
C1478      F1479   1.358       .  S
C1483      C1484   1.408       .  A
C1483      C1488   1.405       .  A
C1483      F1490   1.358       .  S
C1484      C1485   1.400       .  A
C1485      C1486   1.398       .  A
C1485      F1492   1.358       .  S
C1486      C1487   1.413       .  A
C1486      F1491   1.359       .  S
C1487      C1488   1.404       .  A
C1488      F1489   1.355       .  S
C1493      C1494   1.407       .  A
C1493      C1498   1.426   1_554  A
C1493      F1500   1.356       .  S
C1494      C1495   1.422       .  A
C1495      C1496   1.406       .  A
C1495      F1502   1.356       .  S
C1496      C1497   1.403   1_554  A
C1496      F1501   1.358   1_554  S
C1497      C1498   1.418       .  A
C1498      F1499   1.345       .  S
C1503      C1504   1.420       .  A
C1503      C1508   1.435       .  A
C1503      F1510   1.356       .  S
C1504      C1505   1.404       .  A
C1505      C1506   1.396   1_554  A
C1505      F1512   1.349   1_554  S
C1506      C1507   1.408       .  A
C1506      F1511   1.356       .  S
C1507      C1508   1.422   1_556  A
C1508      F1509   1.357       .  S
C1513      C1514   1.410       .  A
C1513      C1518   1.395       .  A
C1513      F1520   1.358       .  S
C1514      C1515   1.398       .  A
C1515      C1516   1.387       .  A
C1515      F1522   1.359       .  S
C1516      C1517   1.413       .  A
C1516      F1521   1.358       .  S
C1517      C1518   1.401       .  A
C1518      F1519   1.358       .  S
C1523      C1524   1.405       .  A
C1523      C1528   1.385       .  A
C1523      F1530   1.359       .  S
C1524      C1525   1.403       .  A
C1525      C1526   1.379       .  A
C1525      F1532   1.357       .  S
C1526      C1527   1.400   1_455  A
C1526      F1531   1.359       .  S
C1527      C1528   1.400   1_655  A
C1528      F1529   1.358   1_455  S
C1533      C1534   1.406       .  A
C1533      C1538   1.412       .  A
C1533      F1540   1.357       .  S
C1534      C1535   1.429       .  A
C1535      C1536   1.409       .  A
C1535      F1542   1.358       .  S
C1536      C1537   1.397       .  A
C1536      F1541   1.357       .  S
C1537      C1538   1.416       .  A
C1538      F1539   1.355       .  S
C1543      C1544   1.418       .  A
C1543      C1548   1.415       .  A
C1543      F1550   1.357       .  S
C1544      C1545   1.400       .  A
C1545      C1546   1.398       .  A
C1545      F1552   1.358       .  S
C1546      C1547   1.410       .  A
C1546      F1551   1.355       .  S
C1547      C1548   1.403       .  A
C1548      F1549   1.357       .  S
C1553      C1554   1.398   1_545  A
C1553      C1558   1.404   1_556  A
C1553      F1560   1.358       .  S
C1554      C1555   1.423   1_565  A
C1555      C1556   1.391       .  A
C1555      F1562   1.358   1_545  S
C1556      C1557   1.392   1_556  A
C1556      F1561   1.359   1_556  S
C1557      C1558   1.419       .  A
C1558      F1559   1.349       .  S
C1563      C1564   1.411       .  A
C1563      C1568   1.395   1_556  A
C1563      F1570   1.358       .  S
C1564      C1565   1.400   1_556  A
C1565      C1566   1.397       .  A
C1565      F1572   1.353       .  S
C1566      C1567   1.410       .  A
C1566      F1571   1.357       .  S
C1567      C1568   1.397       .  A
C1568      F1569   1.350       .  S
C1573      C1574   1.396       .  A
C1573      C1578   1.391       .  A
C1573      F1580   1.358       .  S
C1574      C1575   1.406       .  A
C1575      C1576   1.397       .  A
C1575      F1582   1.358       .  S
C1576      C1577   1.408       .  A
C1576      F1581   1.358       .  S
C1577      C1578   1.405       .  A
C1578      F1579   1.346       .  S
C1583      C1584   1.403       .  A
C1583      C1588   1.398       .  A
C1583      F1590   1.357       .  S
C1584      C1585   1.393       .  A
C1585      C1586   1.384       .  A
C1585      F1592   1.359       .  S
C1586      C1587   1.418       .  A
C1586      F1591   1.359       .  S
C1587      C1588   1.409       .  A
C1588      F1589   1.357       .  S
C1593      C1594   1.401       .  A
C1593      C1598   1.398       .  A
C1593      F1600   1.358       .  S
C1594      C1595   1.399       .  A
C1595      C1596   1.390       .  A
C1595      F1602   1.359       .  S
C1596      C1597   1.414       .  A
C1596      F1601   1.358       .  S
C1597      C1598   1.414       .  A
C1598      F1599   1.358       .  S
C1603      C1604   1.412   1_455  A
C1603      C1608   1.404       .  A
C1603      F1610   1.358   1_455  S
C1604      C1605   1.395   1_655  A
C1605      C1606   1.396       .  A
C1605      F1612   1.358   1_455  S
C1606      C1607   1.418       .  A
C1606      F1611   1.352       .  S
C1607      C1608   1.406       .  A
C1608      F1609   1.357       .  S
C1613      C1614   1.405       .  A
C1613      C1618   1.395       .  A
C1613      F1620   1.357       .  S
C1614      C1615   1.397       .  A
C1615      C1616   1.388       .  A
C1615      F1622   1.357       .  S
C1616      C1617   1.404       .  A
C1616      F1621   1.356       .  S
C1617      C1618   1.398       .  A
C1618      F1619   1.357       .  S
C1623      C1624   1.411       .  A
C1623      C1628   1.401       .  A
C1623      F1630   1.358       .  S
C1624      C1625   1.409       .  A
C1625      C1626   1.408       .  A
C1625      F1632   1.355       .  S
C1626      C1627   1.413       .  A
C1626      F1631   1.357       .  S
C1627      C1628   1.405       .  A
C1628      F1629   1.350       .  S
