geometry optimzed in LAMMPS
_audit_creation_date              2020-11-30 
_audit_creation_method            'lammps2cif' 
_symmetry_space_group_name_H-M    'P1' 
_symmetry_Int_Tables_number       1 
_symmetry_cell_setting            triclinic 
loop_ 
_symmetry_equiv_pos_as_xyz 
  x,y,z 
_cell_length_a                    44.95717672271169 
_cell_length_b                    44.93718263520473 
_cell_length_c                    44.96904613017398 
_cell_angle_alpha                 90.05815700881149 
_cell_angle_beta                  90.33282934474731 
_cell_angle_gamma                 89.89235695305803 
loop_ 
_atom_site_label 
_atom_site_type_symbol 
_atom_site_fract_x 
_atom_site_fract_y 
_atom_site_fract_z 
_atom_site_charge 
C1          C  0.50809828  0.84958936  0.68747246     0.03370
C2          C  0.50804720  0.82781833  0.70975966    -0.12780
C3          C  0.50192661  0.79763117  0.70292449     0.00870
C4          C  0.49660714  0.79021578  0.67276423    -0.11300
C5          C  0.49879080  0.81165362  0.65033572     0.03360
C6          C  0.50350793  0.84136958  0.65791192    -0.10720
H7          H  0.51264307  0.83514786  0.73214815     0.08960
H8          H  0.49008079  0.76805238  0.66620592     0.06490
H9          H  0.50335988  0.85824425  0.64068565     0.06340
C10         C  0.49411996  0.76024141  0.77917443     0.03370
C11         C  0.49721915  0.78205519  0.75719892    -0.12780
C12         C  0.49989165  0.77422921  0.72683317     0.00870
C13         C  0.50090716  0.74354739  0.71961865    -0.11300
C14         C  0.49634198  0.72172194  0.74134654     0.03360
C15         C  0.49271601  0.73029959  0.77094726    -0.10720
H16         H  0.49840794  0.80483399  0.76442025     0.08960
H17         H  0.50625601  0.73614630  0.69744906     0.06490
H18         H  0.49039310  0.71340105  0.78798378     0.06340
C19         C  0.77040661  0.71968162  0.45506092     0.03370
C20         C  0.74848390  0.74191371  0.45586810    -0.12780
C21         C  0.75609358  0.77229439  0.45925240     0.00870
C22         C  0.78661035  0.77970792  0.46102627    -0.11300
C23         C  0.80873077  0.75780783  0.45854918     0.03360
C24         C  0.80045245  0.72775799  0.45659626    -0.10720
H25         H  0.72559029  0.73502885  0.45349328     0.08960
H26         H  0.79367217  0.80245399  0.46421354     0.06490
H27         H  0.81747938  0.71066086  0.45617159     0.06340
C28         C  0.71710412  0.84836882  0.45563895     0.03370
C29         C  0.73896218  0.82605931  0.45367372    -0.12780
C30         C  0.73243040  0.79603779  0.46057257     0.00870
C31         C  0.70284172  0.78890575  0.46828229    -0.11300
C32         C  0.68031461  0.81048726  0.46739173     0.03360
C33         C  0.68794994  0.84029983  0.46285953    -0.10720
H34         H  0.76088434  0.83254198  0.44646757     0.08960
H35         H  0.69691397  0.76671559  0.47517705     0.06490
H36         H  0.67085987  0.85725427  0.46421733     0.06340
C37         C  0.77067905  0.54088358  0.64994973     0.03370
C38         C  0.80034781  0.53602940  0.65815099    -0.12780
C39         C  0.80911126  0.53621435  0.68810445     0.00870
C40         C  0.78726486  0.53878334  0.71013101    -0.11300
C41         C  0.75676537  0.54127601  0.70256457     0.03360
C42         C  0.74899735  0.54326099  0.67210923    -0.10720
H43         H  0.81703589  0.53375190  0.64098348     0.08960
H44         H  0.79433778  0.53929365  0.73300144     0.06490
H45         H  0.72628071  0.54749364  0.66528634     0.06340
C46         C  0.71844161  0.54772332  0.77836432     0.03370
C47         C  0.68959549  0.53835873  0.77083899    -0.12780
C48         C  0.68190229  0.53146730  0.74138563     0.00870
C49         C  0.70395147  0.53214585  0.71947673    -0.11300
C50         C  0.73319682  0.54151837  0.72615884     0.03360
C51         C  0.73975868  0.55012312  0.75572190    -0.10720
H52         H  0.67288311  0.53666997  0.78794700     0.08960
H53         H  0.69793878  0.52494618  0.69730544     0.06490
H54         H  0.76141914  0.55876803  0.76155155     0.06340
C55         C  0.77818608  0.85019079  0.95512105     0.03370
C56         C  0.75635123  0.82784833  0.95652316    -0.12780
C57         C  0.76404197  0.79745599  0.96064283     0.00870
C58         C  0.79465681  0.79055629  0.96389415    -0.11300
C59         C  0.81639220  0.81289371  0.96435954     0.03360
C60         C  0.80800312  0.84244502  0.95947467    -0.10720
H61         H  0.73351071  0.83491124  0.95470481     0.08960
H62         H  0.80236449  0.76799636  0.96637098     0.06490
H63         H  0.82484484  0.85963797  0.95946190     0.06340
C64         C  0.72580631  0.72174212  0.97319938     0.03370
C65         C  0.74752708  0.74409149  0.97179457    -0.12780
C66         C  0.74047932  0.77337037  0.96223747     0.00870
C67         C  0.71046257  0.77924316  0.95436446    -0.11300
C68         C  0.68822500  0.75753334  0.95743722     0.03360
C69         C  0.69621527  0.72895223  0.96687733    -0.10720
H70         H  0.76973618  0.73780960  0.97834338     0.08960
H71         H  0.70367312  0.80051306  0.94560942     0.06490
H72         H  0.67931780  0.71198259  0.96887142     0.06340
C73         C  0.77751060  0.03274989  0.77713303     0.03370
C74         C  0.75653261  0.03479991  0.75417291    -0.12780
C75         C  0.76427065  0.02847370  0.72434728     0.00870
C76         C  0.79429317  0.02131913  0.71831695    -0.11300
C77         C  0.81623850  0.02359792  0.74061692     0.03360
C78         C  0.80740634  0.02845325  0.77007788    -0.10720
H79         H  0.73440036  0.04194541  0.76004232     0.08960
H80         H  0.80094623  0.01418393  0.69649468     0.06490
H81         H  0.82393306  0.02911007  0.78772220     0.06340
C82         C  0.72766203  0.04099468  0.64780742     0.03370
C83         C  0.74936019  0.03467247  0.66959118    -0.12780
C84         C  0.74138007  0.03145753  0.69992074     0.00870
C85         C  0.71079015  0.03160684  0.70695366    -0.11300
C86         C  0.68936353  0.04001302  0.68594455     0.03360
C87         C  0.69832983  0.04595550  0.65679728    -0.10720
H88         H  0.77194540  0.03143580  0.66254474     0.08960
H89         H  0.70331442  0.02401834  0.72837185     0.06490
H90         H  0.68166597  0.05157636  0.64017359     0.06340
C91         C  0.00525757  0.84952800  0.74131154     0.03370
C92         C  0.01024641  0.82730859  0.72000718    -0.12780
C93         C  0.00726289  0.79685340  0.72730255     0.00870
C94         C  0.00396834  0.78931093  0.75770841    -0.11300
C95         C  0.00037975  0.81141397  0.77950700     0.03360
C96         C  0.99902785  0.84120163  0.77054190    -0.10720
H97         H  0.01728350  0.83385489  0.69809161     0.08960
H98         H  0.00474901  0.76654677  0.76476647     0.06490
H99         H  0.99527360  0.85838562  0.78706988     0.06340
C100        C  0.99739495  0.75929974  0.65134968     0.03370
C101        C  0.99952430  0.78108927  0.67358440    -0.12780
C102        C  0.00694555  0.77344805  0.70326909     0.00870
C103        C  0.01225050  0.74308064  0.70976313    -0.11300
C104        C  0.00917067  0.72105553  0.68777729     0.03360
C105        C  0.00182719  0.72945267  0.65870138    -0.10720
H106        H  0.99474295  0.80382419  0.66736304     0.08960
H107        H  0.01886928  0.73598902  0.73174718     0.06490
H108        H  0.00000497  0.71264504  0.64151809     0.06340
C109        C  0.49880091  0.22250983  0.68636367     0.03370
C110        C  0.50237079  0.23168762  0.65682747    -0.12780
C111        C  0.50273563  0.26180298  0.64956388     0.00870
C112        C  0.50268445  0.28314571  0.67214200    -0.11300
C113        C  0.49856637  0.27491011  0.70222977     0.03360
C114        C  0.49524844  0.24422423  0.70863848    -0.10720
H115        H  0.50371060  0.21530656  0.63915736     0.08960
H116        H  0.50534692  0.30598068  0.66539400     0.06490
H117        H  0.48898863  0.23702999  0.73057582     0.06340
C118        C  0.49777021  0.31184402  0.77944850     0.03370
C119        C  0.49346273  0.34164255  0.77156264    -0.12780
C120        C  0.49313332  0.35025513  0.74179295     0.00870
C121        C  0.49278830  0.32852789  0.71954610    -0.11300
C122        C  0.49692160  0.29808139  0.72648619     0.03360
C123        C  0.50075801  0.29036581  0.75685762    -0.10720
H124        H  0.49226594  0.35855702  0.78873369     0.08960
H125        H  0.49017343  0.33617980  0.69698770     0.06490
H126        H  0.50713087  0.26808582  0.76314027     0.06340
O127        O  0.49944208  0.07878113  0.67077870    -0.72700
O128        O  0.50641724  0.98955434  0.67478308    -0.73680
O129        O  0.45942611  0.03071980  0.67178113    -0.62300
O130        O  0.54649581  0.03740184  0.67249104    -0.70710
O131        O  0.54753315  0.03770903  0.72167659    -0.70260
O132        O  0.45659801  0.03432151  0.72054461    -0.61520
O133        O  0.50384633  0.99162399  0.72401090    -0.74030
O134        O  0.50028527  0.08090931  0.71998313    -0.72800
Cu135      Cu  0.50295184  0.03408125  0.67090780     1.04560
Cu136      Cu  0.50207329  0.03628342  0.72342611     1.04330
C137        C  0.49878827  0.09397215  0.69480157     0.93500
C138        C  0.50582529  0.97655333  0.70004794     0.92640
C139        C  0.44373628  0.03187555  0.69510799     0.84780
C140        C  0.56118519  0.03739935  0.69668551     0.91050
C141        C  0.99813907  0.25965043  0.77572316     0.03370
C142        C  0.99988686  0.28112017  0.75332752    -0.12780
C143        C  0.99263202  0.27410182  0.72347557     0.00870
C144        C  0.98628417  0.24390646  0.71666881    -0.11300
C145        C  0.98880289  0.22169775  0.73843879     0.03360
C146        C  0.99346657  0.22993458  0.76800607    -0.10720
H147        H  0.00738322  0.30296555  0.75970885     0.08960
H148        H  0.97940689  0.23699598  0.69476038     0.06490
H149        H  0.99396234  0.21297553  0.78515142     0.06340
C150        C  0.99030817  0.31280339  0.64734399     0.03370
C151        C  0.99108642  0.29064195  0.66928091    -0.12780
C152        C  0.99224336  0.29797403  0.69986830     0.00870
C153        C  0.99289572  0.32857104  0.70754112    -0.11300
C154        C  0.99452277  0.35063535  0.68566061     0.03360
C155        C  0.99326314  0.34265985  0.65569737    -0.10720
H156        H  0.99052078  0.26785748  0.66184081     0.08960
H157        H  0.99201572  0.33596326  0.73034156     0.06490
H158        H  0.99381055  0.35985628  0.63883320     0.06340
C159        C  0.18882743  0.04817025  0.74120789     0.03370
C160        C  0.20998487  0.05242206  0.71884726    -0.12780
C161        C  0.24097096  0.05200607  0.72517691     0.00870
C162        C  0.24963016  0.05106792  0.75555770    -0.11300
C163        C  0.22841686  0.04877084  0.77823242     0.03360
C164        C  0.19840766  0.04550830  0.77068526    -0.10720
H165        H  0.20160183  0.05605071  0.69677311     0.08960
H166        H  0.27261732  0.05228368  0.76232118     0.06490
H167        H  0.18217817  0.04218287  0.78809816     0.06340
C168        C  0.31385270  0.03449363  0.68424015     0.03370
C169        C  0.29437929  0.04508401  0.70635500    -0.12780
C170        C  0.26361104  0.04961371  0.70038625     0.00870
C171        C  0.25462960  0.04982117  0.67013281    -0.11300
C172        C  0.27410545  0.04092204  0.64768286     0.03360
C173        C  0.30206301  0.02981949  0.65554137    -0.10720
H174        H  0.30354981  0.04995410  0.72785454     0.08960
H175        H  0.23286930  0.05721858  0.66325102     0.06490
H176        H  0.31570524  0.02030985  0.63816363     0.06340
O177        O  0.99713834  0.07984718  0.70652473    -0.72700
O178        O  0.00697101  0.99102992  0.70809282    -0.73680
O179        O  0.95771405  0.03037941  0.70781676    -0.62300
O180        O  0.04682062  0.04028193  0.70729684    -0.70710
O181        O  0.04652755  0.04221247  0.75655346    -0.70260
O182        O  0.95858611  0.03034857  0.75710439    -0.61520
O183        O  0.00826047  0.99216432  0.75734638    -0.74030
O184        O  0.99634130  0.08051631  0.75584093    -0.72800
Cu185      Cu  0.00219398  0.03537875  0.70566332     1.04560
Cu186      Cu  0.00250909  0.03636866  0.75838486     1.04330
C187        C  0.99460035  0.09410795  0.73097044     0.93500
C188        C  0.00902781  0.97753863  0.73301474     0.92640
C189        C  0.94420958  0.02825664  0.73268629     0.84780
C190        C  0.06066384  0.04311879  0.73206517     0.91050
C191        C  0.21881969  0.54528510  0.65132036     0.03370
C192        C  0.24098232  0.54082946  0.67293200    -0.12780
C193        C  0.23395000  0.53803876  0.70349495     0.00870
C194        C  0.20351205  0.53531164  0.71091338    -0.11300
C195        C  0.18108795  0.53860516  0.68935836     0.03360
C196        C  0.18900859  0.54609374  0.66026834    -0.10720
H197        H  0.26330552  0.53796402  0.66515939     0.08960
H198        H  0.19675844  0.52914821  0.73304838     0.06490
H199        H  0.17171233  0.54991154  0.64383667     0.06340
C200        C  0.27223942  0.53022877  0.77972040     0.03370
C201        C  0.30156939  0.52481438  0.77096595    -0.12780
C202        C  0.31023519  0.52870503  0.74142968     0.00870
C203        C  0.28841959  0.53408449  0.71974980    -0.11300
C204        C  0.25787398  0.53541558  0.72714519     0.03360
C205        C  0.25066456  0.53600469  0.75779412    -0.10720
H206        H  0.31844704  0.52059728  0.78778532     0.08960
H207        H  0.29597375  0.53899900  0.69770507     0.06490
H208        H  0.22890599  0.54281014  0.76497074     0.06340
O209        O  0.95219401  0.53758683  0.67873461    -0.72700
O210        O  0.04060236  0.53345590  0.68234204    -0.73680
O211        O  0.99474282  0.49112841  0.68044181    -0.62300
O212        O  0.99882095  0.57985111  0.68061189    -0.70710
O213        O  0.99708346  0.58046108  0.72982259    -0.70260
O214        O  0.99299578  0.49074492  0.72980810    -0.61520
O215        O  0.03972174  0.53363163  0.73157649    -0.74030
O216        O  0.94996957  0.53745621  0.72798224    -0.72800
Cu217      Cu  0.99654361  0.53550502  0.67891020     1.04560
Cu218      Cu  0.99478814  0.53558695  0.73160906     1.04330
C219        C  0.93701953  0.53829447  0.70259267     0.93500
C220        C  0.05432038  0.53301405  0.70727879     0.92640
C221        C  0.99358926  0.47693686  0.70495970     0.84780
C222        C  0.99924001  0.59427433  0.70509913     0.91050
O223        O  0.54164811  0.53231629  0.74947017    -0.72700
O224        O  0.45306494  0.53687728  0.75258960    -0.73680
O225        O  0.49536870  0.49061291  0.74988407    -0.62300
O226        O  0.49961442  0.57909498  0.75238485    -0.70710
O227        O  0.49696773  0.58096344  0.70315989    -0.70260
O228        O  0.49335300  0.49132062  0.70055134    -0.61520
O229        O  0.45050896  0.53771265  0.70335759    -0.74030
O230        O  0.54009726  0.53403381  0.70024131    -0.72800
Cu231      Cu  0.49744683  0.53474233  0.75271519     1.04560
Cu232      Cu  0.49515123  0.53613243  0.70001995     1.04330
C233        C  0.55499050  0.53214354  0.72447552     0.93500
C234        C  0.43770885  0.53779662  0.72866674     0.92640
C235        C  0.49392098  0.47694253  0.72504182     0.84780
C236        C  0.49913709  0.59408707  0.72833321     0.91050
C237        C  0.49409826  0.75963938  0.14994982     0.03370
C238        C  0.49418093  0.78160092  0.17211664    -0.12780
C239        C  0.49751535  0.77410570  0.20265127     0.00870
C240        C  0.49961500  0.74352889  0.20992036    -0.11300
C241        C  0.49857865  0.72163449  0.18775577     0.03360
C242        C  0.49645964  0.72978349  0.15792760    -0.10720
H243        H  0.49138012  0.80425736  0.16478552     0.08960
H244        H  0.50233523  0.73608064  0.23256015     0.06490
H245        H  0.49664439  0.71274129  0.14083359     0.06340
C246        C  0.50526645  0.85015347  0.24066053     0.03370
C247        C  0.50384162  0.82799556  0.21888659    -0.12780
C248        C  0.49922502  0.79781684  0.22649724     0.00870
C249        C  0.49603852  0.79089811  0.25715243    -0.11300
C250        C  0.49817054  0.81312529  0.27906316     0.03360
C251        C  0.50324141  0.84253618  0.27063792    -0.10720
H252        H  0.50597156  0.83511274  0.19614868     0.08960
H253        H  0.49121759  0.76862129  0.26458136     0.06490
H254        H  0.50459811  0.85980092  0.28745775     0.06340
O255        O  0.50161419  0.79929573  0.91948239    -0.72700
O256        O  0.50235536  0.80093530  0.00921384    -0.73680
O257        O  0.54712540  0.80030352  0.96353595    -0.62300
O258        O  0.45730884  0.79971849  0.96420574    -0.70710
O259        O  0.45810483  0.75039330  0.96401948    -0.70260
O260        O  0.54693433  0.75109712  0.96530693    -0.61520
O261        O  0.50150337  0.75153596  0.00962030    -0.74030
O262        O  0.50297158  0.74994415  0.92078604    -0.72800
Cu263      Cu  0.50214168  0.80186241  0.96422379     1.04560
Cu264      Cu  0.50245885  0.74910583  0.96511286     1.04330
C265        C  0.50246260  0.77420468  0.90611133     0.93500
C266        C  0.50131354  0.77635438  0.02345709     0.92640
C267        C  0.56122517  0.77557652  0.96332749     0.84780
C268        C  0.44359189  0.77483522  0.96356889     0.91050
C269        C  0.18967873  0.81217382  0.95809603     0.03370
C270        C  0.19941760  0.84155305  0.95449268    -0.12780
C271        C  0.22926349  0.84911881  0.95871006     0.00870
C272        C  0.24998702  0.82674506  0.96504487    -0.11300
C273        C  0.24161451  0.79643820  0.96529927     0.03360
C274        C  0.21090459  0.78970649  0.96303413    -0.10720
H275        H  0.18328732  0.85909090  0.95045375     0.08960
H276        H  0.27234140  0.83341919  0.97080942     0.06490
H277        H  0.20307236  0.76737589  0.96595678     0.06340
C278        C  0.31683063  0.75643352  0.96243850     0.03370
C279        C  0.29487078  0.77851513  0.96078716    -0.12780
C280        C  0.26488863  0.77238835  0.96784993     0.00870
C281        C  0.25753846  0.74288915  0.97589731    -0.11300
C282        C  0.27911012  0.72023337  0.97605354     0.03360
C283        C  0.30872057  0.72732063  0.96968509    -0.10720
H284        H  0.30166775  0.80029317  0.95334847     0.08960
H285        H  0.23517614  0.73687416  0.98199417     0.06490
H286        H  0.32553134  0.71003502  0.97008036     0.06340
C287        C  0.00847662  0.85131460  0.19022695     0.03370
C288        C  0.01136725  0.82899656  0.21182230    -0.12780
C289        C  0.00816917  0.79853612  0.20428622     0.00870
C290        C  0.00477100  0.79128636  0.17378502    -0.11300
C291        C  0.00502136  0.81344614  0.15194519     0.03360
C292        C  0.00550493  0.84331409  0.16031816    -0.10720
H293        H  0.01663052  0.83586870  0.23421644     0.08960
H294        H  0.00221448  0.76864450  0.16626901     0.06490
H295        H  0.00439292  0.86042979  0.14335705     0.06340
C296        C  0.01031314  0.72214939  0.24244993     0.03370
C297        C  0.01172621  0.74424302  0.22056392    -0.12780
C298        C  0.00842476  0.77473352  0.22794805     0.00870
C299        C  0.00454694  0.78205979  0.25834287    -0.11300
C300        C  0.00509576  0.76002775  0.28035883     0.03360
C301        C  0.00706216  0.73015155  0.27220493    -0.10720
H302        H  0.01531509  0.73694581  0.19802084     0.08960
H303        H  0.00043354  0.80462140  0.26545835     0.06490
H304        H  0.00581962  0.71301084  0.28911386     0.06340
O305        O  0.00268110  0.77631317  0.92093647    -0.72700
O306        O  0.00376432  0.77300653  0.01053524    -0.73680
O307        O  0.95837751  0.77340959  0.96595652    -0.62300
O308        O  0.04829423  0.77657350  0.96521074    -0.70710
O309        O  0.04581616  0.82575311  0.96701603    -0.70260
O310        O  0.95725338  0.82266444  0.96820932    -0.61520
O311        O  0.00234402  0.82239786  0.01215447    -0.74030
O312        O  0.00084054  0.82555486  0.92316479    -0.72800
Cu313      Cu  0.00333255  0.77302567  0.96560433     1.04560
Cu314      Cu  0.00147676  0.82572560  0.96769433     1.04330
C315        C  0.00204957  0.80159042  0.90795674     0.93500
C316        C  0.00309926  0.79726525  0.02536213     0.92640
C317        C  0.94367834  0.79776108  0.96719858     0.84780
C318        C  0.06121734  0.80193704  0.96603746     0.91050
C319        C  0.22098936  0.72309524  0.45475704     0.03370
C320        C  0.24215602  0.74576938  0.45655654    -0.12780
C321        C  0.23347363  0.77576698  0.45988192     0.00870
C322        C  0.20278721  0.78215618  0.46268291    -0.11300
C323        C  0.18129397  0.75976315  0.45912350     0.03360
C324        C  0.19072553  0.73033891  0.45496995    -0.10720
H325        H  0.26529228  0.73953326  0.45616662     0.08960
H326        H  0.19552356  0.80423318  0.46875589     0.06490
H327        H  0.17439234  0.71266318  0.45344361     0.06340
C328        C  0.26944680  0.85231053  0.45174304     0.03370
C329        C  0.29921107  0.84568979  0.45842413    -0.12780
C330        C  0.30788550  0.81676933  0.46620676     0.00870
C331        C  0.28623881  0.79441637  0.46800986    -0.11300
C332        C  0.25622521  0.80016716  0.46038793     0.03360
C333        C  0.24831915  0.82939502  0.45202628    -0.10720
H334        H  0.31571555  0.86317947  0.45771655     0.08960
H335        H  0.29330542  0.77267045  0.47545195     0.06490
H336        H  0.22577718  0.83469768  0.44538297     0.06340
O337        O  0.95008655  0.79981890  0.46508573    -0.72700
O338        O  0.04015466  0.79680949  0.46676434    -0.73680
O339        O  0.99600762  0.79803009  0.42089736    -0.62300
O340        O  0.99479060  0.79953148  0.51033676    -0.70710
O341        O  0.99294815  0.75018247  0.51088913    -0.70260
O342        O  0.99430660  0.74865479  0.42149608    -0.61520
O343        O  0.03820194  0.74750033  0.46686236    -0.74030
O344        O  0.94936385  0.75043094  0.46523707    -0.72800
Cu345      Cu  0.99529001  0.80032196  0.46570972     1.04560
Cu346      Cu  0.99365572  0.74752310  0.46616746     1.04330
C347        C  0.93563666  0.77529961  0.46497407     0.93500
C348        C  0.05328978  0.77151529  0.46762119     0.92640
C349        C  0.99533780  0.77314905  0.40714224     0.84780
C350        C  0.99381985  0.77507663  0.52468097     0.91050
O351        O  0.44897478  0.77443932  0.46392226    -0.72700
O352        O  0.53888912  0.77350924  0.46677197    -0.73680
O353        O  0.49274512  0.77363062  0.50974199    -0.62300
O354        O  0.49521677  0.77371764  0.42027043    -0.70710
O355        O  0.49519963  0.82312073  0.42050142    -0.70260
O356        O  0.49261609  0.82303467  0.50960134    -0.61520
O357        O  0.53854850  0.82286494  0.46712227    -0.74030
O358        O  0.44975828  0.82373413  0.46401798    -0.72800
Cu359      Cu  0.49395210  0.77203972  0.46506139     1.04560
Cu360      Cu  0.49409415  0.82484745  0.46519152     1.04330
C361        C  0.43520340  0.79937573  0.46419230     0.93500
C362        C  0.55277334  0.79829597  0.46825578     0.92640
C363        C  0.49191709  0.79839670  0.52367136     0.84780
C364        C  0.49556310  0.79846421  0.40632448     0.91050
C365        C  0.50420726  0.22176801  0.24302246     0.03370
C366        C  0.50882751  0.24378269  0.22142220    -0.12780
C367        C  0.50247787  0.27404483  0.22737218     0.00870
C368        C  0.49418145  0.28194664  0.25659401    -0.11300
C369        C  0.49237076  0.26046332  0.27913129     0.03360
C370        C  0.49703885  0.23048400  0.27204562    -0.10720
H371        H  0.51760977  0.23708274  0.20017801     0.08960
H372        H  0.48885796  0.30472290  0.26222465     0.06490
H373        H  0.49515251  0.21380323  0.28931363     0.06340
C374        C  0.49854749  0.30988648  0.15045302     0.03370
C375        C  0.49948870  0.28846916  0.17294004    -0.12780
C376        C  0.50293309  0.29696093  0.20303677     0.00870
C377        C  0.50594483  0.32767416  0.20956645    -0.11300
C378        C  0.50181524  0.34935150  0.18734657     0.03360
C379        C  0.49770119  0.33997470  0.15788488    -0.10720
H380        H  0.49772276  0.26539250  0.16647359     0.08960
H381        H  0.51210669  0.33476704  0.23164509     0.06490
H382        H  0.49531220  0.35626809  0.14025059     0.06340
O383        O  0.50033095  0.99113901  0.20000094    -0.72700
O384        O  0.50203597  0.08095217  0.20488025    -0.73680
O385        O  0.54548351  0.03511655  0.19999800    -0.62300
O386        O  0.45623443  0.03644130  0.20405812    -0.70710
O387        O  0.45839966  0.03430524  0.25318046    -0.70260
O388        O  0.54774866  0.03167514  0.24917344    -0.61520
O389        O  0.50480953  0.07769666  0.25393471    -0.74030
O390        O  0.50190397  0.98932769  0.24936996    -0.72800
Cu391      Cu  0.50086915  0.03612227  0.20047577     1.04560
Cu392      Cu  0.50325347  0.03329969  0.25308329     1.04330
C393        C  0.50083974  0.97627883  0.22423337     0.93500
C394        C  0.50452049  0.09344379  0.23038212     0.92640
C395        C  0.56065908  0.03260307  0.22392588     0.84780
C396        C  0.44308990  0.03493712  0.22910217     0.91050
O397        O  0.50451232  0.32516994  0.92236552    -0.72700
O398        O  0.50085274  0.32047337  0.01139941    -0.73680
O399        O  0.54657675  0.32439833  0.96914273    -0.62300
O400        O  0.45880644  0.32243865  0.96473767    -0.70710
O401        O  0.45880072  0.27317046  0.96215610    -0.70260
O402        O  0.54880526  0.27523965  0.96724332    -0.61520
O403        O  0.50150283  0.27108500  0.00902728    -0.74030
O404        O  0.50559374  0.27588517  0.92004219    -0.72800
Cu405      Cu  0.50264372  0.32474768  0.96698887     1.04560
Cu406      Cu  0.50376043  0.27202590  0.96448947     1.04330
C407        C  0.50554387  0.30118414  0.90713419     0.93500
C408        C  0.50052885  0.29507583  0.02416360     0.92640
C409        C  0.56179206  0.30052239  0.96957293     0.84780
C410        C  0.44477876  0.29798922  0.96236240     0.91050
C411        C  0.21929218  0.35282471  0.47031643     0.03370
C412        C  0.24121814  0.33078618  0.46735291    -0.12780
C413        C  0.23428357  0.30008435  0.46969418     0.00870
C414        C  0.20384642  0.29241731  0.47232307    -0.11300
C415        C  0.18189442  0.31437762  0.47541980     0.03360
C416        C  0.19005680  0.34432412  0.47616507    -0.10720
H417        H  0.26330229  0.33820367  0.46186062     0.08960
H418        H  0.19637931  0.26974349  0.47079160     0.06490
H419        H  0.17307130  0.36114303  0.47920770     0.06340
C420        C  0.27401131  0.22472069  0.45825770     0.03370
C421        C  0.25175850  0.24586675  0.46455275    -0.12780
C422        C  0.25838372  0.27666180  0.46703603     0.00870
C423        C  0.28877598  0.28476101  0.46803913    -0.11300
C424        C  0.31118080  0.26385699  0.46276795     0.03360
C425        C  0.30344359  0.23471566  0.45524604    -0.10720
H426        H  0.22971712  0.23773825  0.46830031     0.08960
H427        H  0.29572844  0.30691180  0.47413720     0.06490
H428        H  0.32102649  0.21909583  0.44990912     0.06340
O429        O  0.04037632  0.32510942  0.46719521    -0.72700
O430        O  0.95144983  0.32427242  0.46057287    -0.73680
O431        O  0.99262037  0.32179167  0.50786594    -0.62300
O432        O  0.99933372  0.32792343  0.41997065    -0.70710
O433        O  0.99963776  0.27899753  0.41552986    -0.70260
O434        O  0.99437101  0.27253159  0.50536052    -0.61520
O435        O  0.95213239  0.27493965  0.45817475    -0.74030
O436        O  0.04162972  0.27585819  0.46333546    -0.72800
Cu437      Cu  0.99593169  0.32638537  0.46401202     1.04560
Cu438      Cu  0.99696973  0.27376900  0.46043432     1.04330
C439        C  0.05501617  0.30078288  0.46581081     0.93500
C440        C  0.93772822  0.29947489  0.45883287     0.92640
C441        C  0.99239431  0.29646162  0.52065551     0.84780
C442        C  0.00048147  0.30486121  0.40355302     0.91050
O443        O  0.22886620  0.03794943  0.50666116    -0.72700
O444        O  0.22987276  0.04030132  0.41703117    -0.73680
O445        O  0.22678310  0.99366115  0.45973598    -0.62300
O446        O  0.23286925  0.08396065  0.46281500    -0.70710
O447        O  0.28176857  0.07920694  0.46332144    -0.70260
O448        O  0.27601229  0.99123825  0.45972841    -0.61520
O449        O  0.27913791  0.03722717  0.41780236    -0.74030
O450        O  0.27794643  0.03414022  0.50640050    -0.72800
Cu451      Cu  0.22774558  0.03896190  0.46164937     1.04560
Cu452      Cu  0.28027005  0.03520852  0.46198133     1.04330
C453        C  0.25358198  0.03665262  0.52075498     0.93500
C454        C  0.25470631  0.03957361  0.40341660     0.92640
C455        C  0.25079670  0.97836664  0.45817349     0.84780
C456        C  0.25880175  0.09577019  0.46326821     0.91050
C457        C  0.19135337  0.25481577  0.95043978     0.03370
C458        C  0.21301241  0.27719973  0.94903435    -0.12780
C459        C  0.24265234  0.27148728  0.95773737     0.00870
C460        C  0.25025772  0.24232584  0.96674303    -0.11300
C461        C  0.22925301  0.21939701  0.96646188     0.03360
C462        C  0.19982258  0.22593988  0.95864774    -0.10720
H463        H  0.20622693  0.29900171  0.94149451     0.08960
H464        H  0.27240439  0.23711745  0.97465608     0.06490
H465        H  0.18331756  0.20848544  0.95936470     0.06340
C466        C  0.31737062  0.30985375  0.96569630     0.03370
C467        C  0.30847351  0.33910989  0.97162078    -0.12780
C468        C  0.27872232  0.34799412  0.96804907     0.00870
C469        C  0.25715592  0.32604009  0.96261000    -0.11300
C470        C  0.26534203  0.29578901  0.95945099     0.03360
C471        C  0.29584073  0.28866753  0.95854901    -0.10720
H472        H  0.32530104  0.35566943  0.97662050     0.08960
H473        H  0.23435577  0.33274961  0.96024251     0.06490
H474        H  0.30300100  0.26687868  0.95139783     0.06340
C475        C  0.18895562  0.04281793  0.18497556     0.03370
C476        C  0.20951101  0.03378314  0.20703026    -0.12780
C477        C  0.24049400  0.03199120  0.20105937     0.00870
C478        C  0.24930132  0.03247774  0.17098821    -0.11300
C479        C  0.22858774  0.03799124  0.14838400     0.03360
C480        C  0.19986758  0.04704092  0.15596714    -0.10720
H481        H  0.20127109  0.02779168  0.22858298     0.08960
H482        H  0.27195420  0.02839083  0.16446286     0.06490
H483        H  0.18531127  0.05468548  0.13828424     0.06340
C484        C  0.31519425  0.02702177  0.24342488     0.03370
C485        C  0.30595326  0.03455457  0.27209440    -0.12780
C486        C  0.27599423  0.03998703  0.27817776     0.00870
C487        C  0.25501090  0.03872118  0.25511456    -0.11300
C488        C  0.26323869  0.03081111  0.22589894     0.03360
C489        C  0.29373954  0.02448014  0.22063749    -0.10720
H490        H  0.32221934  0.03633158  0.28984453     0.08960
H491        H  0.23240832  0.04474995  0.26044657     0.06490
H492        H  0.30153696  0.01782437  0.19901292     0.06340
C493        C  0.98849425  0.22218712  0.18593578     0.03370
C494        C  0.98899434  0.24504889  0.20728350    -0.12780
C495        C  0.99721306  0.27440505  0.19951250     0.00870
C496        C  0.00436888  0.28004112  0.16940999    -0.11300
C497        C  0.00132701  0.25797265  0.14760638     0.03360
C498        C  0.99452262  0.22893001  0.15619985    -0.10720
H499        H  0.98309992  0.23931250  0.22977843     0.08960
H500        H  0.01294889  0.30133691  0.16250829     0.06490
H501        H  0.99402389  0.21142606  0.13960609     0.06340
C502        C  0.00720666  0.31567385  0.27410159     0.03370
C503        C  0.00163665  0.29281484  0.25330553    -0.12780
C504        C  0.99941515  0.29889785  0.22238246     0.00870
C505        C  0.99919236  0.32903741  0.21336934    -0.11300
C506        C  0.00420227  0.35186993  0.23384266     0.03360
C507        C  0.01040083  0.34485038  0.26338460    -0.10720
H508        H  0.99895999  0.27058102  0.26146934     0.08960
H509        H  0.99481042  0.33524998  0.19057712     0.06490
H510        H  0.01575755  0.36286015  0.27853675     0.06340
O511        O  0.99251216  0.08146042  0.17886038    -0.72700
O512        O  0.00469061  0.99297802  0.17769096    -0.73680
O513        O  0.95494535  0.03117260  0.18070805    -0.62300
O514        O  0.04222287  0.04318962  0.17530307    -0.70710
O515        O  0.04750414  0.04175386  0.22403531    -0.70260
O516        O  0.95751670  0.03242131  0.22991794    -0.61520
O517        O  0.00692448  0.99257712  0.22699242    -0.74030
O518        O  0.99773226  0.08164567  0.22786513    -0.72800
Cu519      Cu  0.99849978  0.03725089  0.17655448     1.04560
Cu520      Cu  0.00255919  0.03714019  0.22902616     1.04330
C521        C  0.99354386  0.09563524  0.20349955     0.93500
C522        C  0.00740822  0.97878272  0.20214807     0.92640
C523        C  0.94218644  0.03006435  0.20593155     0.84780
C524        C  0.05908721  0.04367052  0.19811229     0.91050
O525        O  0.27399291  0.07893079  0.96557877    -0.72700
O526        O  0.27150564  0.98907243  0.96151824    -0.73680
O527        O  0.27276456  0.03616282  0.91842268    -0.62300
O528        O  0.27302252  0.03229199  0.00808016    -0.70710
O529        O  0.22377665  0.03347917  0.00736628    -0.70260
O530        O  0.22349250  0.03819317  0.91888754    -0.61520
O531        O  0.22222066  0.99137953  0.96113630    -0.74030
O532        O  0.22471469  0.07970929  0.96583204    -0.72800
Cu533      Cu  0.27464438  0.03400005  0.96329086     1.04560
Cu534      Cu  0.22194335  0.03566743  0.96318825     1.04330
C535        C  0.24952578  0.09341223  0.96688481     0.93500
C536        C  0.24616948  0.97616006  0.96161510     0.92640
C537        C  0.24794646  0.03828944  0.90457604     0.84780
C538        C  0.24826776  0.03262113  0.02187717     0.91050
O539        O  0.00523968  0.24495654  0.91674752    -0.72700
O540        O  0.00860799  0.24384895  0.00554610    -0.73680
O541        O  0.96240404  0.24345902  0.96259335    -0.62300
O542        O  0.05079261  0.24514113  0.95932272    -0.70710
O543        O  0.05013628  0.29441490  0.95974420    -0.70260
O544        O  0.96033810  0.29260202  0.96347279    -0.61520
O545        O  0.00718147  0.29316335  0.00646006    -0.74030
O546        O  0.00365187  0.29428432  0.91698632    -0.72800
Cu547      Cu  0.00671692  0.24272689  0.96106597     1.04560
Cu548      Cu  0.00524267  0.29542121  0.96172598     1.04330
C549        C  0.00484148  0.26965739  0.90281139     0.93500
C550        C  0.00869703  0.26824605  0.02008192     0.92640
C551        C  0.94718800  0.26736917  0.96402551     0.84780
C552        C  0.06457502  0.26991340  0.95841217     0.91050
C553        C  0.22463944  0.52601360  0.28204339     0.03370
C554        C  0.24534278  0.52333696  0.25931432    -0.12780
C555        C  0.23623479  0.51989858  0.22939374     0.00870
C556        C  0.20521904  0.51790553  0.22357869    -0.11300
C557        C  0.18409873  0.52224235  0.24626326     0.03360
C558        C  0.19438478  0.52763130  0.27527103    -0.10720
H559        H  0.26841023  0.52458287  0.26578874     0.08960
H560        H  0.19691376  0.51337268  0.20154076     0.06490
H561        H  0.17894625  0.53256686  0.29291480     0.06340
C562        C  0.27070802  0.53208341  0.15269692     0.03370
C563        C  0.25006226  0.52428881  0.17455081    -0.12780
C564        C  0.25880853  0.52155813  0.20471578     0.00870
C565        C  0.28972152  0.52216041  0.21109682    -0.11300
C566        C  0.31026468  0.53136170  0.18975357     0.03360
C567        C  0.30011143  0.53790612  0.16109789    -0.10720
H568        H  0.22776823  0.51942906  0.16748583     0.08960
H569        H  0.29833531  0.51446630  0.23207734     0.06490
H570        H  0.31598141  0.54454147  0.14428121     0.06340
O571        O  0.04340146  0.53636687  0.20047212    -0.72700
O572        O  0.95305039  0.53973515  0.19870064    -0.73680
O573        O  0.99974623  0.58266950  0.19988186    -0.62300
O574        O  0.99713264  0.49333681  0.19811411    -0.70710
O575        O  0.99625649  0.49249317  0.24749643    -0.70260
O576        O  0.99938721  0.58172606  0.24927411    -0.61520
O577        O  0.95330595  0.53916082  0.24797742    -0.74030
O578        O  0.04150687  0.53554403  0.24959148    -0.72800
Cu579      Cu  0.99825324  0.53806504  0.19747701     1.04560
Cu580      Cu  0.99747229  0.53719040  0.25020290     1.04330
C581        C  0.05667253  0.53507210  0.22570591     0.93500
C582        C  0.93903700  0.54035617  0.22340717     0.92640
C583        C  0.00035146  0.59616580  0.22485919     0.84780
C584        C  0.99715135  0.47889926  0.22254046     0.91050
O585        O  0.28630474  0.58022170  0.96971297    -0.72700
O586        O  0.28952454  0.49188666  0.96483443    -0.73680
O587        O  0.28819850  0.53824676  0.92267485    -0.62300
O588        O  0.28723663  0.53368977  0.01113259    -0.70710
O589        O  0.23796456  0.53213624  0.01077609    -0.70260
O590        O  0.23900973  0.53612793  0.92137570    -0.61520
O591        O  0.24036055  0.48929184  0.96423600    -0.74030
O592        O  0.23702596  0.57916773  0.96852856    -0.72800
Cu593      Cu  0.28942692  0.53610769  0.96704441     1.04560
Cu594      Cu  0.23677110  0.53416683  0.96612105     1.04330
C595        C  0.26135563  0.59377530  0.97042920     0.93500
C596        C  0.26579562  0.47645610  0.96386796     0.92640
C597        C  0.26391205  0.53778785  0.90788240     0.84780
C598        C  0.26265691  0.53181584  0.02498206     0.91050
O599        O  0.21203379  0.54028712  0.50726724    -0.72700
O600        O  0.21828049  0.53726389  0.41929832    -0.73680
O601        O  0.21486008  0.49458253  0.46441442    -0.62300
O602        O  0.21558941  0.58304973  0.46201823    -0.70710
O603        O  0.26487470  0.58342534  0.46580016    -0.70260
O604        O  0.26398009  0.49358994  0.46826166    -0.61520
O605        O  0.26764792  0.53712266  0.42242463    -0.74030
O606        O  0.26113224  0.53999762  0.51189039    -0.72800
Cu607      Cu  0.21359198  0.53886777  0.46313281     1.04560
Cu608      Cu  0.26625651  0.53855818  0.46725043     1.04330
C609        C  0.23527113  0.54023842  0.52361437     0.93500
C610        C  0.24371573  0.53641827  0.40696685     0.92640
C611        C  0.23912974  0.47989801  0.46643412     0.84780
C612        C  0.24006201  0.59722946  0.46388409     0.91050
O613        O  0.45161672  0.25692817  0.46591059    -0.72700
O614        O  0.54017284  0.25416732  0.46450841    -0.73680
O615        O  0.49715044  0.25584955  0.50943657    -0.62300
O616        O  0.49431647  0.25502631  0.42037594    -0.70710
O617        O  0.49667060  0.30427198  0.41960236    -0.70260
O618        O  0.49806351  0.30528123  0.50944785    -0.61520
O619        O  0.54226508  0.30332565  0.46487373    -0.74030
O620        O  0.45244012  0.30623128  0.46473690    -0.72800
Cu621      Cu  0.49578318  0.25386356  0.46496314     1.04560
Cu622      Cu  0.49741698  0.30657367  0.46453311     1.04330
C623        C  0.43790278  0.28183085  0.46555480     0.93500
C624        C  0.55542810  0.27811245  0.46571736     0.92640
C625        C  0.49830674  0.28053624  0.52343809     0.84780
C626        C  0.49481193  0.27942592  0.40584417     0.91050
O627        O  0.54267897  0.53739921  0.22155308    -0.72700
O628        O  0.45269545  0.53395934  0.22228897    -0.73680
O629        O  0.49938488  0.49100805  0.22049192    -0.62300
O630        O  0.49620176  0.58024065  0.22417337    -0.70710
O631        O  0.49533894  0.58198529  0.17477658    -0.70260
O632        O  0.49886206  0.49313011  0.17127926    -0.61520
O633        O  0.45294192  0.53589065  0.17309312    -0.74030
O634        O  0.54114338  0.53938456  0.17236958    -0.72800
Cu635      Cu  0.49772753  0.53558273  0.22393972     1.04560
Cu636      Cu  0.49700414  0.53766032  0.17125095     1.04330
C637        C  0.55601901  0.53942548  0.19655138     0.93500
C638        C  0.43871242  0.53389220  0.19740416     0.92640
C639        C  0.50003838  0.47796791  0.19524353     0.84780
C640        C  0.49543583  0.59505483  0.19998724     0.91050
C641        C  0.68430761  0.53854555  0.18671422     0.03370
C642        C  0.70616989  0.54358916  0.20853257    -0.12780
C643        C  0.73678508  0.54069797  0.20194990     0.00870
C644        C  0.74490420  0.53694768  0.17179580    -0.11300
C645        C  0.72320836  0.53552369  0.14933206     0.03360
C646        C  0.69323307  0.53380674  0.15725920    -0.10720
H647        H  0.69915204  0.55060411  0.23030272     0.08960
H648        H  0.76789339  0.53563382  0.16518302     0.06490
H649        H  0.67659537  0.53075763  0.13998144     0.06340
C650        C  0.81205439  0.54526493  0.24244702     0.03370
C651        C  0.79014888  0.54708995  0.22012589    -0.12780
C652        C  0.75986194  0.54154061  0.22635750     0.00870
C653        C  0.75197847  0.53587252  0.25622858    -0.11300
C654        C  0.77336942  0.53628332  0.27898679     0.03360
C655        C  0.80342311  0.53945140  0.27180239    -0.10720
H656        H  0.79726953  0.55294119  0.19801768     0.08960
H657        H  0.72932960  0.53085324  0.26229762     0.06490
H658        H  0.82005046  0.53790729  0.28925401     0.06340
O659        O  0.76533160  0.54043019  0.91867148    -0.72700
O660        O  0.76665714  0.53208116  0.00847177    -0.73680
O661        O  0.76542142  0.49120511  0.95950407    -0.62300
O662        O  0.76682126  0.58049817  0.96779317    -0.70710
O663        O  0.71754400  0.58110787  0.96854423    -0.70260
O664        O  0.71604132  0.49219607  0.95931677    -0.61520
O665        O  0.71733915  0.53276256  0.00805275    -0.74030
O666        O  0.71617302  0.54146305  0.91968625    -0.72800
Cu667      Cu  0.76783137  0.53589109  0.96352660     1.04560
Cu668      Cu  0.71513341  0.53677244  0.96385961     1.04330
C669        C  0.74039508  0.54287066  0.90503636     0.93500
C670        C  0.74193482  0.53206194  0.02240266     0.92640
C671        C  0.74046562  0.47767817  0.95823395     0.84780
C672        C  0.74236824  0.59488138  0.96962615     0.91050
C673        C  0.77858744  0.22188782  0.96707182     0.03370
C674        C  0.80830797  0.22983173  0.96296266    -0.12780
C675        C  0.81800003  0.25918054  0.96787819     0.00870
C676        C  0.79643258  0.28108713  0.97408556    -0.11300
C677        C  0.76563940  0.27450126  0.97258909     0.03360
C678        C  0.75723417  0.24431988  0.96989786    -0.10720
H679        H  0.82431992  0.21242935  0.95821441     0.08960
H680        H  0.80362808  0.30291701  0.98066527     0.06490
H681        H  0.73423464  0.23764181  0.97014070     0.06340
C682        C  0.72779605  0.35034422  0.96272748     0.03370
C683        C  0.69794043  0.34219126  0.96396727    -0.12780
C684        C  0.68974503  0.31306800  0.97126989     0.00870
C685        C  0.71209597  0.29216181  0.97750864    -0.11300
C686        C  0.74244508  0.29874679  0.97245846     0.03360
C687        C  0.74992380  0.32846501  0.96530829    -0.10720
H688        H  0.68097085  0.35902701  0.96044078     0.08960
H689        H  0.70548567  0.27105204  0.98659822     0.06490
H690        H  0.77270480  0.33508839  0.96172405     0.06340
C691        C  0.77964742  0.04242171  0.14862442     0.03370
C692        C  0.80863805  0.03414934  0.15713453    -0.12780
C693        C  0.81571470  0.02784082  0.18692064     0.00870
C694        C  0.79302494  0.02835306  0.20818874    -0.11300
C695        C  0.76368265  0.03637879  0.20030883     0.03360
C696        C  0.75757800  0.04422461  0.17056521    -0.10720
H697        H  0.82588939  0.03271946  0.14053753     0.08960
H698        H  0.79843927  0.02200022  0.23078816     0.06490
H699        H  0.73554745  0.05171285  0.16425751     0.06340
C700        C  0.72331079  0.03927279  0.27466709     0.03370
C701        C  0.74562945  0.04155836  0.25311365    -0.12780
C702        C  0.73939946  0.03579944  0.22287574     0.00870
C703        C  0.70985111  0.02897856  0.21450183    -0.11300
C704        C  0.68735491  0.02720855  0.23589213     0.03360
C705        C  0.69445774  0.03145904  0.26588545    -0.10720
H706        H  0.76774811  0.04810150  0.26010080     0.08960
H707        H  0.70412433  0.02453862  0.19151961     0.06490
H708        H  0.67716733  0.02944618  0.28243828     0.06340
O709        O  0.73557219  0.99134715  0.96150110    -0.72700
O710        O  0.73411673  0.08118321  0.96269947    -0.73680
O711        O  0.73564091  0.03689656  0.91711608    -0.62300
O712        O  0.73470280  0.03662500  0.00735835    -0.70710
O713        O  0.78389979  0.03600052  0.00713457    -0.70260
O714        O  0.78494246  0.03825481  0.91859967    -0.61520
O715        O  0.78338839  0.08101043  0.96426739    -0.74030
O716        O  0.78482823  0.99201273  0.96108080    -0.72800
Cu717      Cu  0.73319721  0.03633214  0.96215221     1.04560
Cu718      Cu  0.78586806  0.03670022  0.96282331     1.04330
C719        C  0.76040711  0.97749607  0.96047124     0.93500
C720        C  0.75874208  0.09523242  0.96410029     0.92640
C721        C  0.76069312  0.03844068  0.90381049     0.84780
C722        C  0.75949229  0.03745825  0.02146700     0.91050
C723        C  0.68194574  0.25652252  0.47322897     0.03370
C724        C  0.70456238  0.27782627  0.47649250    -0.12780
C725        C  0.73426507  0.27153043  0.46830008     0.00870
C726        C  0.74086358  0.24222871  0.45876810    -0.11300
C727        C  0.71893045  0.22014754  0.45768991     0.03360
C728        C  0.68947922  0.22777770  0.46384833    -0.10720
H729        H  0.69838807  0.29918390  0.48549252     0.08960
H730        H  0.76287261  0.23581395  0.45186053     0.06490
H731        H  0.67237612  0.21103394  0.46165971     0.06340
C732        C  0.81043729  0.30984262  0.46672019     0.03370
C733        C  0.80206285  0.33978821  0.46689250    -0.12780
C734        C  0.77215321  0.34817606  0.46869856     0.00870
C735        C  0.75035519  0.32595452  0.47043968    -0.11300
C736        C  0.75793726  0.29533509  0.46903309     0.03360
C737        C  0.78848950  0.28784791  0.46739839    -0.10720
H738        H  0.81910517  0.35678116  0.46557670     0.08960
H739        H  0.72769144  0.33305312  0.47282592     0.06490
H740        H  0.79583523  0.26509449  0.46631890     0.06340
O741        O  0.71138968  0.99031908  0.45849494    -0.72700
O742        O  0.71184145  0.07917807  0.46018077    -0.73680
O743        O  0.71268751  0.03596207  0.41540430    -0.62300
O744        O  0.71086402  0.03400076  0.50429852    -0.70710
O745        O  0.76011581  0.03390804  0.50592942    -0.70260
O746        O  0.76195432  0.03540839  0.41646157    -0.61520
O747        O  0.76113429  0.07926772  0.46149027    -0.74030
O748        O  0.76059988  0.98942993  0.46003948    -0.72800
Cu749      Cu  0.71004525  0.03480899  0.45968396     1.04560
Cu750      Cu  0.76271928  0.03441589  0.46114813     1.04330
C751        C  0.73576943  0.97567100  0.45845323     0.93500
C752        C  0.73643122  0.09334063  0.46027217     0.92640
C753        C  0.73756032  0.03646162  0.40182601     0.84780
C754        C  0.73507907  0.03373719  0.51926796     0.91050
O755        O  0.77834719  0.53930453  0.50869880    -0.72700
O756        O  0.77962248  0.53258663  0.41991434    -0.73680
O757        O  0.77666886  0.58024873  0.46089577    -0.62300
O758        O  0.78150806  0.49179032  0.46769930    -0.70710
O759        O  0.73234301  0.48865776  0.46566875    -0.70260
O760        O  0.72731799  0.57841177  0.46181376    -0.61520
O761        O  0.73023371  0.53160101  0.41880903    -0.74030
O762        O  0.72921804  0.53534981  0.50850472    -0.72800
Cu763      Cu  0.78067935  0.53607037  0.46432623     1.04560
Cu764      Cu  0.72797749  0.53339524  0.46365722     1.04330
C765        C  0.75374833  0.53800629  0.52274263     0.93500
C766        C  0.75520463  0.53122742  0.40535737     0.92640
C767        C  0.75145802  0.59334670  0.46055381     0.84780
C768        C  0.75786587  0.47617283  0.46786531     0.91050
C769        C  0.78049940  0.39778086  0.49073882    -0.05540
C770        C  0.76471751  0.38050680  0.46992170     0.00390
C771        C  0.74567922  0.39493385  0.44905825    -0.08180
C772        C  0.74297777  0.42616023  0.45033808    -0.05560
C773        C  0.76014250  0.44336591  0.47001356     0.00380
C774        C  0.77943821  0.42900751  0.49054493    -0.08090
C775        C  0.79942855  0.44627642  0.51179297     0.62290
H776        H  0.79502560  0.38645579  0.50636331     0.12980
H777        H  0.72820326  0.43756716  0.43502596     0.12990
C778        C  0.72941417  0.37813826  0.42450218     0.62520
F779        F  0.81308439  0.42784844  0.53243415    -0.22640
F780        F  0.78304174  0.46717350  0.52721901    -0.19970
F781        F  0.82153373  0.46044893  0.49596113    -0.19650
F782        F  0.70559461  0.36279920  0.43617046    -0.19700
F783        F  0.74850125  0.35841653  0.41062634    -0.20030
F784        F  0.71841436  0.39726035  0.40293749    -0.22700
C785        C  0.74884138  0.17635248  0.47252652    -0.05540
C786        C  0.72710583  0.18837391  0.45333860     0.00390
C787        C  0.71115878  0.16907300  0.43407583    -0.08180
C788        C  0.71491488  0.13826979  0.43738797    -0.05560
C789        C  0.73562373  0.12616346  0.45752825     0.00380
C790        C  0.75383460  0.14548043  0.47460118    -0.08090
C791        C  0.77741807  0.13369825  0.49586040     0.62290
H792        H  0.76104955  0.19135314  0.48694797     0.12980
H793        H  0.70175818  0.12339507  0.42360302     0.12990
C794        C  0.69024170  0.17960389  0.40960411     0.62520
F795        F  0.79064040  0.15628453  0.51216873    -0.22640
F796        F  0.79950491  0.11943678  0.47997642    -0.19970
F797        F  0.76476284  0.11392362  0.51562681    -0.19650
F798        F  0.69263484  0.20974619  0.40401366    -0.19700
F799        F  0.66123983  0.17315597  0.41737431    -0.20030
F800        F  0.69682942  0.16481928  0.38343514    -0.22700
C801        C  0.75336223  0.02640003  0.31913868    -0.05540
C802        C  0.73015333  0.04340211  0.30672229     0.00390
C803        C  0.71199692  0.06084749  0.32567360    -0.08180
C804        C  0.71516534  0.05747699  0.35647399    -0.05560
C805        C  0.73742933  0.03942647  0.36902728     0.00380
C806        C  0.75785154  0.02462789  0.35010939    -0.08090
C807        C  0.78354209  0.00623967  0.36229308     0.62290
H808        H  0.76732316  0.01355640  0.30434285     0.12980
H809        H  0.70031226  0.06969189  0.37100500     0.12990
C810        C  0.68917396  0.08338093  0.31475942     0.62520
F811        F  0.79905928  0.99193302  0.33992171    -0.22640
F812        F  0.77298107  0.98478904  0.38156346    -0.19970
F813        F  0.80330359  0.02459258  0.37718506    -0.19650
F814        F  0.66087575  0.07227378  0.31919760    -0.19700
F815        F  0.69254054  0.09043847  0.28505490    -0.20030
F816        F  0.69215574  0.10955395  0.33074718    -0.22700
C817        C  0.74584321  0.03302182  0.10545968    -0.05540
C818        C  0.77188368  0.04661262  0.11650359     0.00390
C819        C  0.79084577  0.06125496  0.09613241    -0.08180
C820        C  0.78618409  0.05679632  0.06558093    -0.05560
C821        C  0.76109618  0.04168431  0.05438789     0.00380
C822        C  0.73918999  0.03188785  0.07478503    -0.08090
C823        C  0.70901279  0.02048210  0.06474281     0.62290
H824        H  0.73086937  0.02261591  0.12104630     0.12980
H825        H  0.80192542  0.06641965  0.05015446     0.12990
C826        C  0.81541149  0.08268423  0.10513232     0.62520
F827        F  0.69150784  0.01197339  0.08849159    -0.22640
F828        F  0.71239330  0.99615570  0.04642482    -0.19970
F829        F  0.69402934  0.04273210  0.04957413    -0.19650
F830        F  0.84280601  0.06968528  0.09996210    -0.19700
F831        F  0.81371516  0.09120607  0.13462302    -0.20030
F832        F  0.81319101  0.10831293  0.08819692    -0.22700
C833        C  0.78170632  0.13970844  0.98564866    -0.05540
C834        C  0.75967184  0.12807283  0.96683232     0.00390
C835        C  0.74053086  0.14789490  0.95124424    -0.08180
C836        C  0.74716262  0.17859698  0.95188800    -0.05560
C837        C  0.77035692  0.18995901  0.96968125     0.00380
C838        C  0.78599382  0.17032090  0.98894136    -0.08090
C839        C  0.80676073  0.18011651  0.01386528     0.62290
H840        H  0.79516322  0.12460375  0.99891852     0.12980
H841        H  0.73447258  0.19392748  0.93824137     0.12990
C842        C  0.71336146  0.13703103  0.93424468     0.62520
F843        F  0.80005310  0.16458493  0.03953274    -0.22640
F844        F  0.80426677  0.21002544  0.02058508    -0.19970
F845        F  0.83576833  0.17372605  0.00605595    -0.19650
F846        F  0.69366109  0.12407141  0.95384869    -0.19700
F847        F  0.72147168  0.11639641  0.91300017    -0.20030
F848        F  0.69863571  0.16009744  0.91999543    -0.22700
C849        C  0.74553209  0.42986522  0.98422692    -0.05540
C850        C  0.73975951  0.44483233  0.95753756     0.00390
C851        C  0.73193230  0.42842410  0.93179700    -0.08180
C852        C  0.72996002  0.39719733  0.93380118    -0.05560
C853        C  0.73514744  0.38233423  0.96077025     0.00380
C854        C  0.74284195  0.39882622  0.98652600    -0.08090
C855        C  0.74670085  0.38385802  0.01660644     0.62290
H856        H  0.75101015  0.44289298  0.00362649     0.12980
H857        H  0.72342859  0.38416127  0.91457949     0.12990
C858        C  0.72578209  0.44390099  0.90249962     0.62520
F859        F  0.75265628  0.40423025  0.03897288    -0.22640
F860        F  0.77009593  0.36390087  0.01555813    -0.19970
F861        F  0.72093944  0.36885860  0.02400618    -0.19650
F862        F  0.75057737  0.45984749  0.89424917    -0.19700
F863        F  0.70193130  0.46312072  0.90543296    -0.20030
F864        F  0.71923308  0.42386894  0.87999612    -0.22700
C865        C  0.77102716  0.50757405  0.32597950    -0.05540
C866        C  0.76460130  0.53400657  0.31063620     0.00390
C867        C  0.75245680  0.55862690  0.32620579    -0.08180
C868        C  0.74843785  0.55632851  0.35712962    -0.05560
C869        C  0.75616485  0.53039644  0.37260538     0.00380
C870        C  0.76670965  0.50525785  0.35688222    -0.08090
C871        C  0.77288202  0.47611763  0.37277201     0.62290
H872        H  0.78005226  0.48897401  0.31360534     0.12980
H873        H  0.74018262  0.57516067  0.36970438     0.12990
C874        C  0.74473290  0.58751644  0.31042019     0.62520
F875        F  0.78091837  0.45378205  0.35315702    -0.22640
F876        F  0.74754310  0.46710372  0.38751091    -0.19970
F877        F  0.79573793  0.47974554  0.39313703    -0.19650
F878        F  0.72244698  0.58253503  0.28972052    -0.19700
F879        F  0.76954028  0.59849412  0.29616150    -0.20030
F880        F  0.73481604  0.60909719  0.33001932    -0.22700
C881        C  0.72138310  0.55497029  0.06728104    -0.05540
C882        C  0.74086655  0.53378355  0.05532928     0.00390
C883        C  0.75764466  0.51541890  0.07485483    -0.08180
C884        C  0.75181697  0.51689934  0.10566152    -0.05560
C885        C  0.73133476  0.53741866  0.11737024     0.00380
C886        C  0.71766694  0.55835422  0.09797538    -0.08090
C887        C  0.69950902  0.58498093  0.10828897     0.62290
H888        H  0.70956137  0.56988557  0.05235073     0.12980
H889        H  0.76278084  0.50163867  0.12079765     0.12990
C890        C  0.78082391  0.49389042  0.06331409     0.62520
F891        F  0.70777013  0.60998480  0.09240337    -0.22640
F892        F  0.70379221  0.59151375  0.13804766    -0.19970
F893        F  0.66966432  0.57958179  0.10307900    -0.19650
F894        F  0.80349476  0.50949916  0.04979326    -0.19700
F895        F  0.76794126  0.47484495  0.04296090    -0.20030
F896        F  0.79321865  0.47691136  0.08589242    -0.22700
C897        C  0.60563118  0.52416234  0.21545521    -0.05540
C898        C  0.58891910  0.54143934  0.19540332     0.00390
C899        C  0.60390136  0.55967266  0.17452155    -0.08180
C900        C  0.63509620  0.55967251  0.17451390    -0.05560
C901        C  0.65188127  0.54096127  0.19316018     0.00380
C902        C  0.63695727  0.52301211  0.21437189    -0.08090
C903        C  0.65347350  0.50195080  0.23515260     0.62290
H904        H  0.59380146  0.51064201  0.23140425     0.12980
H905        H  0.64683183  0.57345318  0.15874437     0.12990
C906        C  0.58743627  0.57873895  0.15180078     0.62520
F907        F  0.63426038  0.48258017  0.24927582    -0.22640
F908        F  0.66815666  0.51801854  0.25690774    -0.19970
F909        F  0.67372969  0.48501017  0.21943066    -0.19650
F910        F  0.56613500  0.59591970  0.16573877    -0.19700
F911        F  0.57398061  0.56067207  0.13077329    -0.20030
F912        F  0.60638341  0.59780627  0.13692606    -0.22700
C913        C  0.59888501  0.24957898  0.48362264    -0.05540
C914        C  0.58828590  0.27567252  0.46986855     0.00390
C915        C  0.60912123  0.29806177  0.46195985    -0.08180
C916        C  0.63971129  0.29135880  0.46419202    -0.05560
C917        C  0.65004560  0.26472898  0.47711508     0.00380
C918        C  0.62908325  0.24504534  0.48976281    -0.08090
C919        C  0.63705775  0.21982516  0.51085212     0.62290
H920        H  0.58325464  0.23290913  0.49113323     0.12980
H921        H  0.65580697  0.30672058  0.45516469     0.12990
C922        C  0.59969456  0.32869476  0.45116658     0.62520
F923        F  0.61929875  0.22160505  0.53583789    -0.22640
F924        F  0.66629189  0.22101011  0.52049557    -0.19970
F925        F  0.63194428  0.19279620  0.49702386    -0.19650
F926        F  0.58410572  0.34313496  0.47335062    -0.19700
F927        F  0.58202077  0.32622427  0.42613372    -0.20030
F928        F  0.62386062  0.34628936  0.44397482    -0.22700
C929        C  0.89480015  0.56245159  0.24676710    -0.05540
C930        C  0.90618476  0.54361886  0.22462031     0.00390
C931        C  0.88615054  0.52769073  0.20610208    -0.08180
C932        C  0.85540765  0.52969430  0.21198968    -0.05560
C933        C  0.84416863  0.54793334  0.23482234     0.00380
C934        C  0.86417026  0.56608252  0.25120838    -0.08090
C935        C  0.85445446  0.58975591  0.27325412     0.62290
H936        H  0.91014606  0.57503474  0.26055711     0.12980
H937        H  0.83989327  0.51623308  0.19933757     0.12990
C938        C  0.89706612  0.50778325  0.18114470     0.62520
F939        F  0.87170770  0.61500161  0.26988144    -0.22640
F940        F  0.85819192  0.57918236  0.30190136    -0.19970
F941        F  0.82518336  0.59825380  0.26905435    -0.19650
F942        F  0.91687384  0.48693856  0.19226037    -0.19700
F943        F  0.91101641  0.52485726  0.15982032    -0.20030
F944        F  0.87394755  0.49268508  0.16739264    -0.22700
C945        C  0.28283903  0.51075958  0.10413309    -0.05540
C946        C  0.26403775  0.52962797  0.12041871     0.00390
C947        C  0.24285323  0.54749766  0.10519479    -0.08180
C948        C  0.24241214  0.54668885  0.07385765    -0.05560
C949        C  0.26288735  0.52949739  0.05771015     0.00380
C950        C  0.28324852  0.51082980  0.07303351    -0.08090
C951        C  0.30574359  0.49132669  0.05696539     0.62290
H952        H  0.29855804  0.49696723  0.11623577     0.12980
H953        H  0.22670149  0.56035475  0.06162605     0.12990
C954        C  0.22148275  0.56794290  0.12150657     0.62520
F955        F  0.31999587  0.47181003  0.07615845    -0.22640
F956        F  0.32730268  0.50894498  0.04407376    -0.19970
F957        F  0.29162908  0.47461126  0.03525366    -0.19650
F958        F  0.23680041  0.58536232  0.14179003    -0.19700
F959        F  0.20039105  0.55125961  0.13618711    -0.20030
F960        F  0.20656913  0.58678281  0.10214397    -0.22700
C961        C  0.35966594  0.51340779  0.17500059    -0.05540
C962        C  0.34292851  0.53029196  0.19516738     0.00390
C963        C  0.35782935  0.54748189  0.21714958    -0.08180
C964        C  0.38921279  0.54719449  0.21775500    -0.05560
C965        C  0.40583926  0.53151611  0.19647500     0.00380
C966        C  0.39080160  0.51426698  0.17460477    -0.08090
C967        C  0.40714097  0.49698927  0.15054975     0.62290
H968        H  0.34785152  0.50033827  0.15849413     0.12980
H969        H  0.40108229  0.56005626  0.23436812     0.12990
C970        C  0.34107616  0.56687201  0.23915704     0.62520
F971        F  0.38822084  0.47861553  0.13453945    -0.22640
F972        F  0.42898841  0.47929100  0.16321110    -0.19970
F973        F  0.41986099  0.51660164  0.13065753    -0.19650
F974        F  0.32684211  0.54924030  0.25977292    -0.19700
F975        F  0.32032534  0.58426765  0.22439637    -0.20030
F976        F  0.36002169  0.58573858  0.25453469    -0.22700
C977        C  0.09988035  0.51708290  0.25432282    -0.05540
C978        C  0.08956168  0.53135075  0.22847276     0.00390
C979        C  0.11063414  0.54091201  0.20712716    -0.08180
C980        C  0.14124388  0.53753437  0.21373157    -0.05560
C981        C  0.15137978  0.52267070  0.23951990     0.00380
C982        C  0.12989975  0.51040696  0.25904555    -0.08090
C983        C  0.13701671  0.48897904  0.28424181     0.62290
H984        H  0.08405176  0.50963867  0.27076179     0.12980
H985        H  0.15752930  0.54684548  0.19878660     0.12990
C986        C  0.10121884  0.55506094  0.17790424     0.62520
F987        F  0.13770368  0.50416924  0.31100729    -0.22640
F988        F  0.16368294  0.47446099  0.27980470    -0.19970
F989        F  0.11532159  0.46722580  0.28596943    -0.19650
F990        F  0.08332425  0.57953772  0.18325391    -0.19700
F991        F  0.08578550  0.53450881  0.16090954    -0.20030
F992        F  0.12539922  0.56444281  0.16146760    -0.22700
C993        C  0.24543437  0.55358691  0.32474925    -0.05540
C994        C  0.23456789  0.52665531  0.31328467     0.00390
C995        C  0.23116207  0.50176678  0.33231635    -0.08180
C996        C  0.23557742  0.50575827  0.36287704    -0.05560
C997        C  0.24469089  0.53311177  0.37457138     0.00380
C998        C  0.25075606  0.55718860  0.35538908    -0.08090
C999        C  0.26093917  0.58689092  0.36758185     0.62290
H1000       H  0.24834250  0.57214807  0.30969480     0.12980
H1001       H  0.23139358  0.48737020  0.37791065     0.12990
C1002       C  0.22277056  0.47071408  0.32196077     0.62520
F1003       F  0.26631458  0.60725224  0.34517150    -0.22640
F1004       F  0.28695258  0.58317039  0.38373855    -0.19970
F1005       F  0.23912037  0.59834370  0.38585691    -0.19650
F1006       F  0.24331911  0.45051009  0.33295320    -0.19700
F1007       F  0.22227175  0.46772751  0.29139114    -0.20030
F1008       F  0.19503873  0.46353879  0.33297829    -0.22700
C1009       C  0.89706794  0.28874623  0.95360054    -0.05540
C1010       C  0.91417423  0.26580243  0.96639281     0.00390
C1011       C  0.89942577  0.24229546  0.98135669    -0.08180
C1012       C  0.86836089  0.24341676  0.98374901    -0.05560
C1013       C  0.85091201  0.26495658  0.96908693     0.00380
C1014       C  0.86562717  0.28839994  0.95377857    -0.08090
C1015       C  0.84901238  0.31287726  0.93725056     0.62290
H1016       H  0.90861926  0.30670323  0.94256079     0.12980
H1017       H  0.85713183  0.22631351  0.99622901     0.12990
C1018       C  0.91585953  0.21556012  0.99430293     0.62520
F1019       F  0.86751471  0.32807345  0.91802166    -0.22640
F1020       F  0.83792780  0.33330409  0.95734070    -0.19970
F1021       F  0.82600841  0.30110338  0.92045901    -0.19650
F1022       F  0.93789121  0.22492176  0.01373574    -0.19700
F1023       F  0.92829108  0.19905761  0.97152158    -0.20030
F1024       F  0.89714106  0.19678934  0.00980877    -0.22700
C1025       C  0.85913680  0.04140325  0.21844806    -0.05540
C1026       C  0.84727783  0.02293097  0.19603361     0.00390
C1027       C  0.86659645  0.00331010  0.18068845    -0.08180
C1028       C  0.89737367  0.00596228  0.18530756    -0.05560
C1029       C  0.90944102  0.02581422  0.20627629     0.00380
C1030       C  0.88997947  0.04284489  0.22425097    -0.08090
C1031       C  0.90165043  0.06349863  0.24834729     0.62290
H1032       H  0.84411808  0.05591938  0.23040620     0.12980
H1033       H  0.91228910  0.99225394  0.17223399     0.12990
C1034       C  0.85610731  0.97925552  0.15935505     0.62520
F1035       F  0.87893943  0.07897486  0.26218280    -0.22640
F1036       F  0.92097368  0.08401938  0.23618264    -0.19970
F1037       F  0.91640549  0.04705036  0.26983730    -0.19650
F1038       F  0.86322751  0.98728034  0.13058363    -0.19700
F1039       F  0.82585780  0.97410914  0.16102106    -0.20030
F1040       F  0.87035374  0.95275405  0.16608195    -0.22700
C1041       C  0.02813198  0.40059158  0.22697818    -0.05540
C1042       C  0.00205062  0.38364938  0.22546591     0.00390
C1043       C  0.97421790  0.39803547  0.22120262    -0.08180
C1044       C  0.97350503  0.42931767  0.21918893    -0.05560
C1045       C  0.99950102  0.44619963  0.22204872     0.00380
C1046       C  0.02729616  0.43177887  0.22557958    -0.08090
C1047       C  0.05572598  0.44946828  0.22918318     0.62290
H1048       H  0.04904954  0.38916029  0.23077039     0.12980
H1049       H  0.95254740  0.44093149  0.21641025     0.12990
C1050       C  0.94535072  0.38056406  0.22015233     0.62520
F1051       F  0.08051310  0.43130106  0.23174403    -0.22640
F1052       F  0.05382843  0.46655118  0.25462935    -0.19970
F1053       F  0.05959502  0.46776092  0.20480886    -0.19650
F1054       F  0.94238014  0.36397313  0.24585578    -0.19700
F1055       F  0.94532722  0.36171975  0.19585239    -0.20030
F1056       F  0.92079963  0.39906476  0.21771619    -0.22700
C1057       C  0.02780708  0.24900016  0.10036170    -0.05540
C1058       C  0.00546996  0.26458494  0.11555298     0.00390
C1059       C  0.98541641  0.28295282  0.09935937    -0.08180
C1060       C  0.98812918  0.28442062  0.06822822    -0.05560
C1061       C  0.00946532  0.26760043  0.05295816     0.00380
C1062       C  0.03014807  0.25006577  0.06920445    -0.08090
C1063       C  0.05462994  0.23260380  0.05385387     0.62290
H1064       H  0.04279640  0.23503381  0.11315480     0.12980
H1065       H  0.97276353  0.29788898  0.05535106     0.12990
C1066       C  0.96038781  0.29984148  0.11454021     0.62520
F1067       F  0.07489806  0.22099406  0.07405173    -0.22640
F1068       F  0.06995238  0.25097224  0.03463629    -0.19970
F1069       F  0.04246198  0.20915717  0.03805328    -0.19650
F1070       F  0.97203343  0.32196778  0.13246615    -0.19700
F1071       F  0.94369639  0.28058528  0.13163711    -0.20030
F1072       F  0.94143292  0.31322209  0.09417045    -0.22700
C1073       C  0.96847068  0.14028764  0.18347990    -0.05540
C1074       C  0.98962418  0.12842141  0.20327951     0.00390
C1075       C  0.00733432  0.14804190  0.22067057    -0.08180
C1076       C  0.00463844  0.17889512  0.21580300    -0.05560
C1077       C  0.98456627  0.19059779  0.19478026     0.00380
C1078       C  0.96485263  0.17107445  0.17968979    -0.08090
C1079       C  0.93976018  0.18141622  0.15942806     0.62290
H1080       H  0.95437339  0.12525172  0.17086279     0.12980
H1081       H  0.01935782  0.19413537  0.22733543     0.12990
C1082       C  0.03004950  0.13666120  0.24310464     0.62520
F1083       F  0.91379791  0.16684765  0.16701201    -0.22640
F1084       F  0.94663370  0.17452170  0.13028495    -0.19970
F1085       F  0.93429108  0.21162323  0.16160713    -0.19650
F1086       F  0.04959749  0.11726206  0.22940277    -0.19700
F1087       F  0.01564192  0.12214064  0.26595513    -0.20030
F1088       F  0.04654290  0.15954831  0.25554686    -0.22700
C1089       C  0.26115136  0.04730953  0.10471466    -0.05540
C1090       C  0.23617101  0.03298042  0.11666776     0.00390
C1091       C  0.21814196  0.01514051  0.09775093    -0.08180
C1092       C  0.22275905  0.01643278  0.06710809    -0.05560
C1093       C  0.24696902  0.03154387  0.05480896     0.00380
C1094       C  0.26756418  0.04599547  0.07404560    -0.08090
C1095       C  0.29563936  0.06053817  0.06245944     0.62290
H1096       H  0.27529374  0.06004240  0.11954670     0.12980
H1097       H  0.20749192  0.00461565  0.05257094     0.12990
C1098       C  0.19432161  0.99365306  0.10821421     0.62520
F1099       F  0.31173222  0.07423541  0.08495045    -0.22640
F1100       F  0.28843125  0.08186538  0.04145452    -0.19970
F1101       F  0.31375001  0.03914021  0.04978818    -0.19650
F1102       F  0.16667342  0.00438587  0.09990178    -0.19700
F1103       F  0.19486927  0.98882294  0.13854001    -0.20030
F1104       F  0.19856563  0.96630012  0.09468549    -0.22700
C1105       C  0.13727489  0.03558274  0.16647900    -0.05540
C1106       C  0.15574001  0.04453077  0.19019277     0.00390
C1107       C  0.14165471  0.05512967  0.21656139    -0.08180
C1108       C  0.11024898  0.05336706  0.21865538    -0.05560
C1109       C  0.09216348  0.04547619  0.19419626     0.00380
C1110       C  0.10632217  0.03881420  0.16674302    -0.08090
C1111       C  0.08976334  0.03588242  0.13720049     0.62290
H1112       H  0.14726655  0.02614743  0.14693164     0.12980
H1113       H  0.09960114  0.05938301  0.23936701     0.12990
C1114       C  0.15839783  0.06912391  0.24245506     0.62520
F1115       F  0.10884337  0.03182103  0.11346649    -0.22640
F1116       F  0.07380273  0.06165774  0.13161841    -0.19970
F1117       F  0.07084185  0.01182344  0.13781432    -0.19650
F1118       F  0.18356747  0.08389374  0.23296997    -0.19700
F1119       F  0.16615148  0.04740408  0.26284392    -0.20030
F1120       F  0.14073597  0.08990661  0.25675476    -0.22700
C1121       C  0.29110288  0.39726166  0.94765248    -0.05540
C1122       C  0.27207218  0.38055844  0.96589105     0.00390
C1123       C  0.24962045  0.39563612  0.98225284    -0.08180
C1124       C  0.24762759  0.42690308  0.97986280    -0.05560
C1125       C  0.26796226  0.44351048  0.96305102     0.00380
C1126       C  0.29022356  0.42842086  0.94662823    -0.08090
C1127       C  0.31336687  0.44477637  0.92826967     0.62290
H1128       H  0.30770486  0.38551821  0.93479488     0.12980
H1129       H  0.23058245  0.43878728  0.99200760     0.12990
C1130       C  0.22805371  0.37962130  0.00261522     0.62520
F1131       F  0.32990978  0.42552479  0.91085545    -0.22640
F1132       F  0.33296388  0.45950082  0.94696709    -0.19970
F1133       F  0.29960650  0.46500618  0.90951943    -0.19650
F1134       F  0.24246610  0.35761847  0.01866848    -0.19700
F1135       F  0.20531519  0.36723194  0.98593574    -0.20030
F1136       F  0.21534775  0.39902002  0.02286079    -0.22700
C1137       C  0.26214742  0.17646026  0.95586107    -0.05540
C1138       C  0.23832239  0.18813098  0.97237911     0.00390
C1139       C  0.22168142  0.16882274  0.99078532    -0.08180
C1140       C  0.22651162  0.13811661  0.98844098    -0.05560
C1141       C  0.24894591  0.12619080  0.97035380     0.00380
C1142       C  0.26826731  0.14571621  0.95504641    -0.08090
C1143       C  0.29433905  0.13429854  0.93698200     0.62290
H1144       H  0.27510062  0.19152934  0.94236615     0.12980
H1145       H  0.21258014  0.12317196  0.00116266     0.12990
C1146       C  0.19877736  0.17924846  0.01323018     0.62520
F1147       F  0.30921427  0.15712391  0.92275986    -0.22640
F1148       F  0.28441477  0.11452228  0.91553727    -0.19970
F1149       F  0.31446422  0.12016999  0.95560174    -0.19650
F1150       F  0.17058400  0.17204684  0.00310406    -0.19700
F1151       F  0.20015025  0.20951450  0.01859415    -0.20030
F1152       F  0.20369154  0.16500737  0.04009191    -0.22700
C1153       C  0.14787190  0.28594990  0.96363602    -0.05540
C1154       C  0.15928793  0.26206016  0.94692353     0.00390
C1155       C  0.13930836  0.24317619  0.93148835    -0.08180
C1156       C  0.10887929  0.24598443  0.93709540    -0.05560
C1157       C  0.09728924  0.26936561  0.95431252     0.00380
C1158       C  0.11706124  0.29055184  0.96690029    -0.08090
C1159       C  0.10606985  0.31706937  0.98472571     0.62290
H1160       H  0.16335739  0.30038444  0.97518414     0.12980
H1161       H  0.09386882  0.22997625  0.92704826     0.12990
C1162       C  0.14866998  0.22020624  0.90854153     0.62520
F1163       F  0.12930303  0.33314044  0.99710246    -0.22640
F1164       F  0.08805546  0.30751762  0.00762626    -0.19970
F1165       F  0.09019885  0.33605760  0.96635425    -0.19650
F1166       F  0.14414059  0.19192927  0.91973307    -0.19700
F1167       F  0.17808637  0.22308536  0.90023821    -0.20030
F1168       F  0.13150222  0.22361304  0.88312709    -0.22700
C1169       C  0.24494953  0.02543169  0.32078451    -0.05540
C1170       C  0.26643821  0.04489880  0.30925620     0.00390
C1171       C  0.28082859  0.06536300  0.32852144    -0.08180
C1172       C  0.27613348  0.06282639  0.35916217    -0.05560
C1173       C  0.25586673  0.04231277  0.37083550     0.00380
C1174       C  0.23898090  0.02410132  0.35140731    -0.08090
C1175       C  0.21595529  0.00237693  0.36297405     0.62290
H1176       H  0.23387226  0.01018998  0.30571350     0.12980
H1177       H  0.28829464  0.07730322  0.37423093     0.12990
C1178       C  0.30111887  0.09018897  0.31808721     0.62520
F1179       F  0.20371617  0.98533259  0.34036011    -0.22640
F1180       F  0.19308880  0.01788875  0.37641513    -0.19970
F1181       F  0.22893610  0.98330246  0.38341614    -0.19650
F1182       F  0.29947730  0.09484864  0.28773810    -0.19700
F1183       F  0.29305062  0.11655556  0.33180650    -0.20030
F1184       F  0.33018080  0.08352909  0.32587294    -0.22700
C1185       C  0.89035703  0.28597152  0.48284561    -0.05540
C1186       C  0.90487307  0.29920663  0.45871679     0.00390
C1187       C  0.88794385  0.31322268  0.43612622    -0.08180
C1188       C  0.85689239  0.31380903  0.43855182    -0.05560
C1189       C  0.84240028  0.30233100  0.46354284     0.00380
C1190       C  0.85924563  0.28794097  0.48614553    -0.08090
C1191       C  0.84487758  0.27618811  0.51428283     0.62290
H1192       H  0.90381001  0.27534856  0.49986414     0.12980
H1193       H  0.84365009  0.32502088  0.42173907     0.12990
C1194       C  0.90260688  0.32925584  0.41060417     0.62520
F1195       F  0.86589963  0.26706092  0.53498139    -0.22640
F1196       F  0.82712208  0.25201077  0.50761749    -0.19970
F1197       F  0.82777178  0.29821285  0.52727594    -0.19650
F1198       F  0.92362299  0.31103466  0.39747092    -0.19700
F1199       F  0.91597199  0.35467919  0.42157578    -0.20030
F1200       F  0.88229771  0.33764809  0.38890232    -0.22700
C1201       C  0.99247315  0.33346645  0.32400123    -0.05540
C1202       C  0.00631645  0.31095661  0.30724686     0.00390
C1203       C  0.01922298  0.28649576  0.32284428    -0.08180
C1204       C  0.01529951  0.28467126  0.35397763    -0.05560
C1205       C  0.00284650  0.30816445  0.37054758     0.00380
C1206       C  0.99333698  0.33413628  0.35510092    -0.08090
C1207       C  0.98514282  0.36315328  0.37053299     0.62290
H1208       H  0.98154979  0.35154419  0.31241663     0.12980
H1209       H  0.02346383  0.26525010  0.36574874     0.12990
C1210       C  0.03803156  0.26266650  0.30802787     0.62520
F1211       F  0.97716547  0.38530090  0.35060806    -0.22640
F1212       F  0.00932229  0.37349782  0.38663287    -0.19970
F1213       F  0.96144960  0.35881524  0.38918923    -0.19650
F1214       F  0.05336028  0.27394538  0.28398094    -0.19700
F1215       F  0.02008477  0.23938712  0.29892532    -0.20030
F1216       F  0.05904145  0.25153262  0.32774637    -0.22700
C1217       C  0.28930491  0.17426384  0.47430003    -0.05540
C1218       C  0.26819923  0.19178373  0.45908372     0.00390
C1219       C  0.24342303  0.17725411  0.44556875    -0.08180
C1220       C  0.24043065  0.14616871  0.44911281    -0.05560
C1221       C  0.26254056  0.12874099  0.46294981     0.00380
C1222       C  0.28805413  0.14312308  0.47502188    -0.08090
C1223       C  0.31437285  0.12623478  0.48834809     0.62290
H1224       H  0.30755319  0.18528333  0.48539821     0.12980
H1225       H  0.22116015  0.13508506  0.43971533     0.12990
C1226       C  0.22018578  0.19326019  0.42679397     0.62520
F1227       F  0.33526988  0.14505212  0.50098556    -0.22640
F1228       F  0.32865917  0.11030042  0.46626589    -0.19970
F1229       F  0.30473220  0.10714770  0.51034320    -0.19650
F1230       F  0.23216903  0.21742026  0.41213327    -0.19700
F1231       F  0.19706144  0.20255096  0.44471677    -0.20030
F1232       F  0.20864332  0.17442112  0.40525885    -0.22700
C1233       C  0.35534103  0.29401829  0.44916022    -0.05540
C1234       C  0.34294901  0.27169532  0.46707985     0.00390
C1235       C  0.36152792  0.25599318  0.48730171    -0.08180
C1236       C  0.39228630  0.26031099  0.48590511    -0.05560
C1237       C  0.40500119  0.28147172  0.46699796     0.00380
C1238       C  0.38621845  0.29970151  0.44922351    -0.08090
C1239       C  0.39863409  0.32423508  0.42976813     0.62290
H1240       H  0.34068553  0.30637634  0.43447551     0.12980
H1241       H  0.40665872  0.24714312  0.50024041     0.12990
C1242       C  0.35044454  0.23466716  0.51096538     0.62520
F1243       F  0.37661107  0.33800918  0.41307504    -0.22640
F1244       F  0.41943675  0.31259764  0.41039776    -0.19970
F1245       F  0.41189993  0.34568498  0.44745782    -0.19650
F1246       F  0.35846059  0.20596578  0.50330441    -0.19700
F1247       F  0.32003119  0.23594243  0.51502155    -0.20030
F1248       F  0.36361605  0.24163605  0.53797465    -0.22700
C1249       C  0.13515519  0.31742371  0.44702437    -0.05540
C1250       C  0.14990079  0.30710828  0.47262668     0.00390
C1251       C  0.13359085  0.29269975  0.49523289    -0.08180
C1252       C  0.10258059  0.28989778  0.49163257    -0.05560
C1253       C  0.08774579  0.30173885  0.46678115     0.00380
C1254       C  0.10420742  0.31516642  0.44374329    -0.08090
C1255       C  0.08916103  0.32676117  0.41571128     0.62290
H1256       H  0.14814655  0.32805100  0.42986211     0.12980
H1257       H  0.08958401  0.27924386  0.50864350     0.12990
C1258       C  0.14858776  0.28144363  0.52339358     0.62520
F1259       F  0.10959873  0.33673418  0.39509245    -0.22640
F1260       F  0.07053979  0.35024345  0.42263659    -0.19970
F1261       F  0.07270735  0.30424551  0.40264399    -0.19650
F1262       F  0.16398472  0.30438827  0.53699353    -0.19700
F1263       F  0.16817031  0.25874874  0.51657114    -0.20030
F1264       F  0.12817423  0.27046994  0.54352964    -0.22700
C1265       C  0.25018021  0.39706171  0.48285794    -0.05540
C1266       C  0.22661939  0.38484621  0.46619974     0.00390
C1267       C  0.20997666  0.40360491  0.44690019    -0.08180
C1268       C  0.21488510  0.43435518  0.44809636    -0.05560
C1269       C  0.23754822  0.44687645  0.46567226     0.00380
C1270       C  0.25656387  0.42778994  0.48230251    -0.08090
C1271       C  0.28298456  0.43958888  0.49983078     0.62290
H1272       H  0.26323271  0.38232167  0.49681996     0.12980
H1273       H  0.20103660  0.44888064  0.43461757     0.12990
C1274       C  0.18718329  0.39216226  0.42454835     0.62520
F1275       F  0.29739097  0.41728828  0.51555166    -0.22640
F1276       F  0.27365130  0.46090904  0.51994006    -0.19970
F1277       F  0.30334880  0.45196293  0.48052462    -0.19650
F1278       F  0.15909738  0.39323983  0.43687552    -0.19700
F1279       F  0.19347484  0.36338284  0.41563094    -0.20030
F1280       F  0.18715878  0.40967768  0.39922983    -0.22700
C1281       C  0.61201941  0.28154374  0.95712720    -0.05540
C1282       C  0.59465202  0.30244722  0.97249120     0.00390
C1283       C  0.60901052  0.32500133  0.98953303    -0.08180
C1284       C  0.64017318  0.32539331  0.99066876    -0.05560
C1285       C  0.65754715  0.30583886  0.97373549     0.00380
C1286       C  0.64331807  0.28328772  0.95664593    -0.08090
C1287       C  0.66056140  0.26193040  0.93690595     0.62290
H1288       H  0.60074058  0.26448134  0.94434310     0.12980
H1289       H  0.65146737  0.34239335  0.00353682     0.12990
C1290       C  0.59206911  0.34943938  0.00571570     0.62520
F1291       F  0.64189483  0.24603245  0.91816999    -0.22640
F1292       F  0.67590825  0.24164707  0.95422758    -0.19970
F1293       F  0.68033535  0.27743682  0.91931627    -0.19650
F1294       F  0.57015547  0.33724261  0.02322202    -0.19700
F1295       F  0.57935878  0.36863880  0.98523122    -0.20030
F1296       F  0.61042798  0.36611127  0.02408255    -0.22700
C1297       C  0.39575764  0.27956950  0.97864666    -0.05540
C1298       C  0.41203586  0.29887808  0.96045435     0.00390
C1299       C  0.39687064  0.31980776  0.94224751    -0.08180
C1300       C  0.36579853  0.32109068  0.94357383    -0.05560
C1301       C  0.34954691  0.30314207  0.96309318     0.00380
C1302       C  0.36458067  0.28165444  0.98079788    -0.08090
C1303       C  0.34829388  0.26187592  0.00271965     0.62290
H1304       H  0.40784201  0.26361656  0.99214502     0.12980
H1305       H  0.35382777  0.33718346  0.93012057     0.12990
C1306       C  0.41313839  0.34110457  0.92170988     0.62520
F1307       F  0.36784807  0.24693967  0.02137631    -0.22640
F1308       F  0.33184076  0.24078273  0.98754724    -0.19970
F1309       F  0.32959948  0.27880181  0.02028520    -0.19650
F1310       F  0.43364936  0.32569070  0.90479799    -0.19700
F1311       F  0.42754003  0.36268167  0.93831549    -0.20030
F1312       F  0.39381292  0.35546566  0.90237313    -0.22700
C1313       C  0.60621743  0.00580840  0.23844445    -0.05540
C1314       C  0.59334527  0.02952074  0.22269289     0.00390
C1315       C  0.61183275  0.04965381  0.20712894    -0.08180
C1316       C  0.64289432  0.04666564  0.21010578    -0.05560
C1317       C  0.65570054  0.02385705  0.22727521     0.00380
C1318       C  0.63713626  0.00195602  0.24009144    -0.08090
C1319       C  0.64869957  0.97421532  0.25556513     0.62290
H1320       H  0.59188191  0.98985260  0.24937836     0.12980
H1321       H  0.65746405  0.06304871  0.20025234     0.12990
C1322       C  0.59899298  0.07487533  0.18858962     0.62520
F1323       F  0.64235342  0.97587679  0.28557047    -0.22640
F1324       F  0.67898542  0.97020147  0.25213898    -0.19970
F1325       F  0.63467508  0.94946905  0.24371037    -0.19650
F1326       F  0.57999686  0.09196916  0.20561153    -0.19700
F1327       F  0.58349452  0.06332287  0.16459891    -0.20030
F1328       F  0.62098072  0.09335671  0.17767785    -0.22700
C1329       C  0.39832915  0.01419780  0.25312613    -0.05540
C1330       C  0.41006328  0.03219991  0.23054213     0.00390
C1331       C  0.39016713  0.04600923  0.21006972    -0.08180
C1332       C  0.35926802  0.04254363  0.21424312    -0.05560
C1333       C  0.34767856  0.02473501  0.23710794     0.00380
C1334       C  0.36771257  0.00883176  0.25573440    -0.08090
C1335       C  0.35822026  0.98550300  0.27818692     0.62290
H1336       H  0.41337548  0.00321416  0.26847449     0.12980
H1337       H  0.34379052  0.05450534  0.20009414     0.12990
C1338       C  0.40115287  0.06517705  0.18458845     0.62520
F1339       F  0.37562239  0.96029149  0.27490034    -0.22640
F1340       F  0.32892763  0.97684983  0.27458620    -0.19970
F1341       F  0.36224789  0.99650815  0.30665384    -0.19650
F1342       F  0.41589655  0.04761084  0.16413334    -0.19700
F1343       F  0.42018533  0.08689492  0.19530400    -0.20030
F1344       F  0.37799055  0.07926758  0.16981074    -0.22700
C1345       C  0.47452462  0.29157879  0.10411038    -0.05540
C1346       C  0.50031287  0.30140920  0.11880129     0.00390
C1347       C  0.52705231  0.30515104  0.10272518    -0.08180
C1348       C  0.52640693  0.30130434  0.07181063    -0.05560
C1349       C  0.50016370  0.29381928  0.05681204     0.00380
C1350       C  0.47410135  0.28743895  0.07304493    -0.08090
C1351       C  0.44603541  0.27701495  0.05740769     0.62290
H1352       H  0.45453144  0.28824309  0.11700044     0.12980
H1353       H  0.54632405  0.30474146  0.05897027     0.12990
C1354       C  0.55607661  0.31347348  0.11807749     0.62520
F1355       F  0.42324207  0.27169321  0.07726374    -0.22640
F1356       F  0.45178647  0.25084566  0.04225743    -0.19970
F1357       F  0.43656649  0.29844002  0.03742472    -0.19650
F1358       F  0.56192650  0.29372580  0.14094866    -0.19700
F1359       F  0.55417863  0.34193301  0.12949520    -0.20030
F1360       F  0.57988429  0.31267964  0.09868850    -0.22700
C1361       C  0.52185985  0.39881976  0.17450335    -0.05540
C1362       C  0.50355016  0.38200767  0.19335904     0.00390
C1363       C  0.48477837  0.39711958  0.21377896    -0.08180
C1364       C  0.48499050  0.42850238  0.21409290    -0.05560
C1365       C  0.50201855  0.44507306  0.19394136     0.00380
C1366       C  0.52077184  0.43001693  0.17364254    -0.08090
C1367       C  0.53937411  0.44651422  0.15083542     0.62290
H1368       H  0.53620051  0.38707825  0.15923371     0.12980
H1369       H  0.47106542  0.44047429  0.22963894     0.12990
C1370       C  0.46388256  0.38073995  0.23457250     0.62520
F1371       F  0.55844157  0.42762543  0.13576974    -0.22640
F1372       F  0.55644321  0.46805975  0.16474253    -0.19970
F1373       F  0.52089338  0.45973549  0.12997688    -0.19650
F1374       F  0.48002564  0.36721122  0.25702938    -0.19700
F1375       F  0.44777469  0.35953646  0.21908513    -0.20030
F1376       F  0.44374028  0.39990640  0.24779030    -0.22700
C1377       C  0.52527986  0.17223354  0.25472838    -0.05540
C1378       C  0.50686350  0.18940316  0.23613596     0.00390
C1379       C  0.48855616  0.17484529  0.21474137    -0.08180
C1380       C  0.48944353  0.14354594  0.21299423    -0.05560
C1381       C  0.50667900  0.12637313  0.23266736     0.00380
C1382       C  0.52511266  0.14094728  0.25394168    -0.08090
C1383       C  0.54416678  0.12394340  0.27627535     0.62290
H1384       H  0.53889075  0.18371389  0.27103058     0.12980
H1385       H  0.47569179  0.13207515  0.19680849     0.12990
C1386       C  0.46710208  0.19178361  0.19465379     0.62520
F1387       F  0.56332406  0.14254713  0.29172031    -0.22640
F1388       F  0.56125070  0.10283801  0.26189421    -0.19970
F1389       F  0.52609985  0.11010688  0.29682340    -0.19650
F1390       F  0.48275487  0.20739064  0.17346188    -0.19700
F1391       F  0.45009014  0.21130147  0.21124068    -0.20030
F1392       F  0.44780827  0.17283824  0.17981698    -0.22700
C1393       C  0.47043693  0.25962116  0.36063399    -0.05540
C1394       C  0.49222664  0.27837228  0.37292896     0.00390
C1395       C  0.51148479  0.29412849  0.35370495    -0.08180
C1396       C  0.50918991  0.28924816  0.32284844    -0.05560
C1397       C  0.48831593  0.26937759  0.31070101     0.00380
C1398       C  0.46746960  0.25555633  0.32977850    -0.08090
C1399       C  0.44173491  0.23652767  0.31889979     0.62290
H1400       H  0.45530278  0.24812353  0.37538026     0.12980
H1401       H  0.52494002  0.29964606  0.30799966     0.12990
C1402       C  0.53596249  0.31398846  0.36571867     0.62520
F1403       F  0.41581678  0.24560127  0.33270198    -0.22640
F1404       F  0.44713868  0.20710385  0.32615332    -0.19970
F1405       F  0.43705158  0.23870010  0.28856850    -0.19650
F1406       F  0.55387033  0.29759707  0.38466428    -0.19700
F1407       F  0.52377799  0.33781207  0.38086932    -0.20030
F1408       F  0.55366596  0.32528031  0.34331939    -0.22700
C1409       C  0.35191414  0.78662919  0.45231821    -0.05540
C1410       C  0.33998798  0.80952820  0.47002170     0.00390
C1411       C  0.35945039  0.82691338  0.48779966    -0.08180
C1412       C  0.39020363  0.82321208  0.48436310    -0.05560
C1413       C  0.40227238  0.80082832  0.46620440     0.00380
C1414       C  0.38280704  0.78148484  0.45055713    -0.08090
C1415       C  0.39441669  0.75642783  0.43111628     0.62290
H1416       H  0.33678081  0.77335095  0.43902052     0.12980
H1417       H  0.40506245  0.83764267  0.49677542     0.12990
C1418       C  0.34917611  0.84914677  0.51106841     0.62520
F1419       F  0.37174281  0.74234382  0.41564396    -0.22640
F1420       F  0.40844851  0.73532338  0.44864086    -0.19970
F1421       F  0.41432486  0.76755450  0.41060177    -0.19650
F1422       F  0.31927172  0.84660221  0.51754834    -0.19700
F1423       F  0.35486959  0.87771119  0.50124106    -0.20030
F1424       F  0.36475182  0.84444575  0.53728888    -0.22700
C1425       C  0.23756449  0.89484457  0.46583212    -0.05540
C1426       C  0.26011002  0.88374822  0.44733151     0.00390
C1427       C  0.27577012  0.90374845  0.42881457    -0.08180
C1428       C  0.27139304  0.93440018  0.43278623    -0.05560
C1429       C  0.25051910  0.94569904  0.45304127     0.00380
C1430       C  0.23215791  0.92557515  0.46872903    -0.08090
C1431       C  0.20881943  0.93633159  0.49031494     0.62290
H1432       H  0.22548384  0.87928812  0.47958800     0.12980
H1433       H  0.28459226  0.94980689  0.41983278     0.12990
C1434       C  0.29718638  0.89408177  0.40465815     0.62520
F1435       F  0.19427816  0.91303477  0.50412559    -0.22640
F1436       F  0.18769025  0.95320370  0.47551050    -0.19970
F1437       F  0.22249308  0.95325281  0.51198367    -0.19650
F1438       F  0.29561270  0.86395643  0.39858567    -0.19700
F1439       F  0.32593680  0.90115093  0.41314450    -0.20030
F1440       F  0.29045829  0.90903999  0.37858125    -0.22700
C1441       C  0.13363442  0.74899922  0.48387518    -0.05540
C1442       C  0.14890709  0.76583019  0.46260484     0.00390
C1443       C  0.13262445  0.78541238  0.44384865    -0.08180
C1444       C  0.10155016  0.78750926  0.44748462    -0.05560
C1445       C  0.08621788  0.77002561  0.46827695     0.00380
C1446       C  0.10264410  0.75054170  0.48716364    -0.08090
C1447       C  0.08954825  0.73072259  0.51118983     0.62290
H1448       H  0.14622748  0.73397604  0.49804742     0.12980
H1449       H  0.08871112  0.80211200  0.43316420     0.12990
C1450       C  0.14744217  0.80281646  0.41904406     0.62520
F1451       F  0.09333237  0.70126231  0.50307653    -0.22640
F1452       F  0.05977751  0.73555657  0.51649356    -0.19970
F1453       F  0.10455679  0.73560415  0.53770193    -0.19650
F1454       F  0.16509583  0.78410039  0.40220657    -0.19700
F1455       F  0.16470518  0.82532424  0.43089285    -0.20030
F1456       F  0.12673623  0.81576611  0.40014644    -0.22700
C1457       C  0.22027284  0.67650554  0.48306471    -0.05540
C1458       C  0.22985112  0.69149198  0.45749815     0.00390
C1459       C  0.24565175  0.67579872  0.43522786    -0.08180
C1460       C  0.25064561  0.64510920  0.43923198    -0.05560
C1461       C  0.23909432  0.62990722  0.46378852     0.00380
C1462       C  0.22434463  0.64579147  0.48649832    -0.08090
C1463       C  0.21318161  0.63036754  0.51433019     0.62290
H1464       H  0.20860795  0.68905247  0.49998172     0.12980
H1465       H  0.26261296  0.63251521  0.42264265     0.12990
C1466       C  0.25576776  0.69081837  0.40678750     0.62520
F1467       F  0.20253094  0.65048835  0.53504873    -0.22640
F1468       F  0.23619847  0.61457155  0.52740239    -0.19970
F1469       F  0.19033714  0.61106648  0.50715183    -0.19650
F1470       F  0.27807990  0.71100818  0.41298987    -0.19700
F1471       F  0.23207400  0.70547593  0.39356075    -0.20030
F1472       F  0.26678211  0.67045023  0.38649493    -0.22700
C1473       C  0.97533198  0.76003477  0.32607941    -0.05540
C1474       C  0.00205405  0.76753312  0.31218492     0.00390
C1475       C  0.02609571  0.77877226  0.32928898    -0.08180
C1476       C  0.02273260  0.78127523  0.36032232    -0.05560
C1477       C  0.99636682  0.77255157  0.37433345     0.00380
C1478       C  0.97201549  0.76252082  0.35698421    -0.08090
C1479       C  0.94249134  0.75522006  0.37109217     0.62290
H1480       H  0.95727003  0.75155124  0.31247383     0.12980
H1481       H  0.04098243  0.78917675  0.37402512     0.12990
C1482       C  0.05538583  0.78705249  0.31489472     0.62520
F1483       F  0.92105621  0.74776933  0.35015605    -0.22640
F1484       F  0.93258250  0.77989016  0.38657333    -0.19970
F1485       F  0.94588421  0.73140138  0.39024896    -0.19650
F1486       F  0.05093289  0.81017753  0.29510938    -0.19700
F1487       F  0.06679233  0.76278219  0.29980604    -0.20030
F1488       F  0.07631984  0.79609695  0.33569973    -0.22700
C1489       C  0.98301400  0.67867615  0.22298277    -0.05540
C1490       C  0.00970806  0.69033012  0.23431402     0.00390
C1491       C  0.03412409  0.67124892  0.23997446    -0.08180
C1492       C  0.03034337  0.64049000  0.23586224    -0.05560
C1493       C  0.00323883  0.62871495  0.22582987     0.00380
C1494       C  0.97935724  0.64791783  0.21851942    -0.08090
C1495       C  0.94991775  0.63576845  0.20723670     0.62290
H1496       H  0.96472024  0.69382276  0.21866780     0.12980
H1497       H  0.04839958  0.62527324  0.24091512     0.12990
C1498       C  0.06396238  0.68344099  0.25010589     0.62520
F1499       F  0.92933821  0.65818151  0.20216198    -0.22640
F1500       F  0.93821217  0.61646522  0.22799812    -0.19970
F1501       F  0.95423341  0.62067801  0.18079719    -0.19650
F1502       F  0.06144521  0.69595947  0.27805627    -0.19700
F1503       F  0.07342485  0.70492419  0.23030426    -0.20030
F1504       F  0.08548970  0.66140773  0.25147808    -0.22700
C1505       C  0.97890692  0.79742866  0.10600833    -0.05540
C1506       C  0.00557885  0.80562281  0.12004111     0.00390
C1507       C  0.03210751  0.80756689  0.10332416    -0.08180
C1508       C  0.03062371  0.80297400  0.07245923    -0.05560
C1509       C  0.00364826  0.79672576  0.05812173     0.00380
C1510       C  0.97751292  0.79290848  0.07505038    -0.08090
C1511       C  0.94824260  0.78514229  0.06018752     0.62290
H1512       H  0.95901540  0.79565804  0.11936290     0.12980
H1513       H  0.05044122  0.80492198  0.05915276     0.12990
C1514       C  0.06177227  0.81464309  0.11802833     0.62520
F1515       F  0.92553394  0.78189086  0.08058465    -0.22640
F1516       F  0.95112216  0.75870177  0.04469753    -0.19970
F1517       F  0.94040868  0.80752786  0.04067684    -0.19650
F1518       F  0.06728383  0.79459213  0.14072192    -0.19700
F1519       F  0.06126145  0.84313953  0.12959264    -0.20030
F1520       F  0.08507692  0.81292032  0.09809897    -0.22700
C1521       C  0.03293976  0.90000146  0.18506681    -0.05540
C1522       C  0.01007679  0.88334402  0.19799805     0.00390
C1523       C  0.98741258  0.89808842  0.21420490    -0.08180
C1524       C  0.98827852  0.92935818  0.21631583    -0.05560
C1525       C  0.01012183  0.94602169  0.20172057     0.00380
C1526       C  0.03310511  0.93120543  0.18620929    -0.08090
C1527       C  0.05694411  0.94820633  0.16978062     0.62290
H1528       H  0.04986210  0.88830628  0.17257131     0.12980
H1529       H  0.97103200  0.94120593  0.22821326     0.12990
C1530       C  0.96161821  0.88118543  0.22781746     0.62520
F1531       F  0.07956305  0.92971570  0.16004758    -0.22640
F1532       F  0.06941824  0.96954001  0.18819980    -0.19970
F1533       F  0.04424889  0.96167237  0.14519913    -0.19650
F1534       F  0.97186000  0.86304295  0.25045585    -0.19700
F1535       F  0.94775778  0.86397023  0.20633275    -0.20030
F1536       F  0.94052488  0.90020893  0.23969284    -0.22700
C1537       C  0.24833928  0.67710333  0.96083449    -0.05540
C1538       C  0.27047476  0.68854936  0.97989814     0.00390
C1539       C  0.28640773  0.66876039  0.99868398    -0.08180
C1540       C  0.28242023  0.63806813  0.99482569    -0.05560
C1541       C  0.26151922  0.62649130  0.97459671     0.00380
C1542       C  0.24314306  0.64628570  0.95821429    -0.08090
C1543       C  0.21919179  0.63506692  0.93710286     0.62290
H1544       H  0.23606553  0.69248670  0.94686223     0.12980
H1545       H  0.29573636  0.62284194  0.00808350     0.12990
C1546       C  0.30772429  0.67866378  0.02306782     0.62520
F1547       F  0.20542405  0.65810340  0.92188534    -0.22640
F1548       F  0.19760350  0.62019529  0.95301396    -0.19970
F1549       F  0.23152946  0.61597656  0.91639323    -0.19650
F1550       F  0.30555830  0.70871508  0.02931609    -0.19700
F1551       F  0.30143993  0.66345155  0.04902280    -0.20030
F1552       F  0.33657793  0.67212677  0.01474962    -0.22700
C1553       C  0.10974684  0.78424049  0.94660016    -0.05540
C1554       C  0.09420111  0.80387661  0.96530128     0.00390
C1555       C  0.11036409  0.82511358  0.98227151    -0.08180
C1556       C  0.14148415  0.82528149  0.98037480    -0.05560
C1557       C  0.15705612  0.80664587  0.96073882     0.00380
C1558       C  0.14092154  0.78573489  0.94329161    -0.08090
C1559       C  0.15585399  0.76569417  0.92056528     0.62290
H1560       H  0.09709183  0.76819245  0.93377369     0.12980
H1561       H  0.15409310  0.84101369  0.99363038     0.12990
C1562       C  0.09521295  0.84796557  0.00207040     0.62520
F1563       F  0.13539416  0.75401110  0.90062314    -0.22640
F1564       F  0.16968179  0.74215748  0.93478193    -0.19970
F1565       F  0.17656641  0.78149600  0.90436817    -0.19650
F1566       F  0.07543047  0.83405410  0.02080781    -0.19700
F1567       F  0.08020055  0.86850463  0.98467500    -0.20030
F1568       F  0.11538948  0.86340557  0.01958973    -0.22700
C1569       C  0.22393729  0.89773767  0.98305927    -0.05540
C1570       C  0.23736130  0.88102277  0.96049561     0.00390
C1571       C  0.25568144  0.89537495  0.93935809    -0.08180
C1572       C  0.25894200  0.92654711  0.94101747    -0.05560
C1573       C  0.24415182  0.94336768  0.96271112     0.00380
C1574       C  0.22701628  0.92872438  0.98464815    -0.08090
C1575       C  0.21272800  0.94552742  0.01019617     0.62290
H1576       H  0.21031298  0.88620380  0.99914813     0.12980
H1577       H  0.27233458  0.93816272  0.92482383     0.12990
C1578       C  0.27079209  0.87810941  0.91463865     0.62520
F1579       F  0.20066175  0.92648306  0.03107703    -0.22640
F1580       F  0.19009104  0.96360540  0.99970977    -0.19970
F1581       F  0.23401979  0.96266115  0.02435085    -0.19650
F1582       F  0.24994359  0.86174017  0.89892555    -0.19700
F1583       F  0.29187785  0.85908469  0.92655086    -0.20030
F1584       F  0.28502875  0.89678933  0.89484270    -0.22700
C1585       C  0.39855737  0.75220758  0.94198421    -0.05540
C1586       C  0.41074783  0.77360065  0.96127301     0.00390
C1587       C  0.39151147  0.79185212  0.97828134    -0.08180
C1588       C  0.36069754  0.78638303  0.97686498    -0.05560
C1589       C  0.34865837  0.76412875  0.95839298     0.00380
C1590       C  0.36776861  0.74797299  0.93928153    -0.08090
C1591       C  0.35704029  0.72641121  0.91551552     0.62290
H1592       H  0.41333994  0.73891186  0.92835007     0.12980
H1593       H  0.34574951  0.79879716  0.99105483     0.12990
C1594       C  0.40334514  0.81607426  0.99871401     0.62520
F1595       F  0.37145928  0.73232493  0.88906291    -0.22640
F1596       F  0.32684160  0.72860997  0.90997999    -0.19970
F1597       F  0.36371514  0.69763066  0.92416256    -0.19650
F1598       F  0.41677845  0.83803292  0.98200547    -0.19700
F1599       F  0.42383494  0.80416965  0.01846557    -0.20030
F1600       F  0.38091072  0.82930324  0.01506864    -0.22700
C1601       C  0.51981314  0.79280321  0.32558733    -0.05540
C1602       C  0.49543060  0.80604098  0.31112638     0.00390
C1603       C  0.47014609  0.81455524  0.32779593    -0.08180
C1604       C  0.47085011  0.81102784  0.35887932    -0.05560
C1605       C  0.49568639  0.79889584  0.37347296     0.00380
C1606       C  0.52039425  0.78906449  0.35669764    -0.08090
C1607       C  0.54775093  0.77613346  0.37180775     0.62290
H1608       H  0.53885926  0.78642925  0.31236692     0.12980
H1609       H  0.45211329  0.81815653  0.37217321     0.12990
C1610       C  0.44251510  0.82712564  0.31278335     0.62520
F1611       F  0.56977990  0.76906264  0.35159215    -0.22640
F1612       F  0.54023885  0.75044674  0.38687704    -0.19970
F1613       F  0.55921514  0.79664895  0.39171638    -0.19650
F1614       F  0.43322733  0.80807136  0.29042528    -0.19700
F1615       F  0.44858253  0.85469618  0.30071053    -0.20030
F1616       F  0.41930175  0.83049426  0.33261170    -0.22700
C1617       C  0.47737929  0.89685342  0.23677862    -0.05540
C1618       C  0.50433319  0.88186445  0.23228212     0.00390
C1619       C  0.52957029  0.89761062  0.22221910    -0.08180
C1620       C  0.52706333  0.92853606  0.21780587    -0.05560
C1621       C  0.50044718  0.94364809  0.22382506     0.00380
C1622       C  0.47508715  0.92771339  0.23308945    -0.08090
C1623       C  0.44610691  0.94347063  0.24009968     0.62290
H1624       H  0.45840823  0.88423256  0.24446474     0.12980
H1625       H  0.54622799  0.94139030  0.21103692     0.12990
C1626       C  0.55914515  0.88204965  0.21750938     0.62520
F1627       F  0.42345690  0.92358740  0.24616564    -0.22640
F1628       F  0.43738027  0.96073332  0.21612948    -0.19970
F1629       F  0.45006414  0.96141713  0.26476026    -0.19650
F1630       F  0.55637813  0.86104738  0.19520318    -0.19700
F1631       F  0.56799017  0.86812012  0.24351814    -0.20030
F1632       F  0.58123580  0.90182114  0.20938996    -0.22700
C1633       C  0.47216089  0.76590504  0.06850863    -0.05540
C1634       C  0.49884155  0.77613512  0.05618547     0.00390
C1635       C  0.52291670  0.78371150  0.07507859    -0.08180
C1636       C  0.52007535  0.77914895  0.10587533    -0.05560
C1637       C  0.49384814  0.76767846  0.11804654     0.00380
C1638       C  0.46904548  0.76200360  0.09937764    -0.08090
C1639       C  0.43941294  0.75231289  0.11211416     0.62290
H1640       H  0.45388812  0.76054778  0.05364296     0.12980
H1641       H  0.53862517  0.78368063  0.12067225     0.12990
C1642       C  0.55157304  0.79590080  0.06257085     0.62520
F1643       F  0.41737668  0.75130548  0.09050341    -0.22640
F1644       F  0.43060310  0.77228594  0.13378891    -0.19970
F1645       F  0.44193308  0.72430464  0.12452831    -0.19650
F1646       F  0.54575081  0.82278100  0.04878719    -0.19700
F1647       F  0.56319354  0.77603196  0.04216577    -0.20030
F1648       F  0.57276857  0.80067604  0.08451035    -0.22700
C1649       C  0.47066368  0.67515444  0.19431076    -0.05540
C1650       C  0.49819303  0.68976223  0.19533245     0.00390
C1651       C  0.52463860  0.67339828  0.20032332    -0.08180
C1652       C  0.52265682  0.64234642  0.20341895    -0.05560
C1653       C  0.49528819  0.62765954  0.20087977     0.00380
C1654       C  0.46876849  0.64409158  0.19694751    -0.08090
C1655       C  0.43880611  0.62867223  0.19529676     0.62290
H1656       H  0.45076983  0.68825445  0.19038586     0.12980
H1657       H  0.54256650  0.62916459  0.20681650     0.12990
C1658       C  0.55473041  0.68862357  0.20125121     0.62520
F1659       F  0.41562512  0.64882698  0.19256482    -0.22640
F1660       F  0.43443396  0.61227730  0.22090968    -0.19970
F1661       F  0.43795803  0.60981083  0.17099274    -0.19650
F1662       F  0.55544731  0.70903702  0.22425962    -0.19700
F1663       F  0.55966001  0.70321855  0.17467029    -0.20030
F1664       F  0.57768924  0.66849830  0.20566119    -0.22700
C1665       C  0.24441131  0.52003688  0.85934714    -0.05540
C1666       C  0.26464589  0.53821737  0.87489752     0.00390
C1667       C  0.28529538  0.55560166  0.85873161    -0.08180
C1668       C  0.28511402  0.55371609  0.82759229    -0.05560
C1669       C  0.26622487  0.53416123  0.81205938     0.00380
C1670       C  0.24508773  0.51722620  0.82810995    -0.08090
C1671       C  0.22402069  0.49555455  0.81285153     0.62290
H1672       H  0.22861413  0.50715443  0.87205114     0.12980
H1673       H  0.30088884  0.56670118  0.81494808     0.12990
C1674       C  0.30783083  0.57582541  0.87393776     0.62520
F1675       F  0.20953815  0.47762857  0.83316196    -0.22640
F1676       F  0.23957191  0.47720245  0.79371922    -0.19970
F1677       F  0.20256289  0.51103302  0.79708980    -0.19650
F1678       F  0.32908440  0.55880283  0.88840849    -0.19700
F1679       F  0.29369654  0.59412067  0.89420075    -0.20030
F1680       F  0.32245328  0.59383842  0.85379958    -0.22700
C1681       C  0.35813049  0.55294034  0.75232962    -0.05540
C1682       C  0.34245953  0.53213314  0.73494843     0.00390
C1683       C  0.35810261  0.51452580  0.71398001    -0.08180
C1684       C  0.38908096  0.51842141  0.71152661    -0.05560
C1685       C  0.40486276  0.53781527  0.73035666     0.00380
C1686       C  0.38915075  0.55570296  0.75094593    -0.08090
C1687       C  0.40480205  0.57767971  0.77143491     0.62290
H1688       H  0.34577103  0.56644711  0.76796314     0.12980
H1689       H  0.40142471  0.50551852  0.69542797     0.12990
C1690       C  0.34282359  0.49085096  0.69519142     0.62520
F1691       F  0.38482387  0.59605419  0.78595460    -0.22640
F1692       F  0.42375174  0.59553508  0.75519422    -0.19970
F1693       F  0.42088718  0.56244407  0.79286210    -0.19650
F1694       F  0.32605953  0.50407617  0.67301004    -0.19700
F1695       F  0.32462314  0.47348084  0.71274539    -0.20030
F1696       F  0.36323052  0.47216603  0.68168901    -0.22700
C1697       C  0.10004307  0.51551578  0.68333334    -0.05540
C1698       C  0.08729084  0.53135771  0.70692485     0.00390
C1699       C  0.10616463  0.54618464  0.72756059    -0.08180
C1700       C  0.13691379  0.54753208  0.72150617    -0.05560
C1701       C  0.14931941  0.53301804  0.69676450     0.00380
C1702       C  0.13078398  0.51465471  0.67886708    -0.08090
C1703       C  0.14216736  0.49363276  0.65502814     0.62290
H1704       H  0.08571601  0.50310934  0.66832237     0.12980
H1705       H  0.15142486  0.56062421  0.73565005     0.12990
C1706       C  0.09410899  0.56101179  0.75533863     0.62520
F1707       F  0.12613898  0.46735801  0.65549017    -0.22640
F1708       F  0.17170526  0.48614870  0.65939843    -0.19970
F1709       F  0.13848082  0.50666044  0.62740228    -0.19650
F1710       F  0.08094170  0.53982925  0.77324188    -0.19700
F1711       F  0.07337087  0.58248069  0.74766217    -0.20030
F1712       F  0.11637185  0.57459150  0.77183395    -0.22700
C1713       C  0.20905247  0.52359721  0.60187661    -0.05540
C1714       C  0.22560470  0.54401192  0.61885528     0.00390
C1715       C  0.24654525  0.56258862  0.60429943    -0.08180
C1716       C  0.24981829  0.55983333  0.57321735    -0.05560
C1717       C  0.23194642  0.54048196  0.55632171     0.00380
C1718       C  0.21108181  0.52201893  0.57086177    -0.08090
C1719       C  0.19092391  0.50057616  0.55400453     0.62290
H1720       H  0.19381282  0.50905347  0.61322609     0.12980
H1721       H  0.26594409  0.57343436  0.56171723     0.12990
C1722       C  0.26503460  0.58565828  0.62077987     0.62520
F1723       F  0.17562020  0.48186738  0.57296233    -0.22640
F1724       F  0.20760344  0.48299080  0.53510414    -0.19970
F1725       F  0.17006503  0.51641200  0.53772031    -0.19650
F1726       F  0.28875605  0.57197867  0.63489921    -0.19700
F1727       F  0.24791412  0.60053466  0.64149864    -0.20030
F1728       F  0.27640457  0.60670837  0.60148105    -0.22700
C1729       C  0.23990484  0.03102244  0.60486857    -0.05540
C1730       C  0.26617327  0.04413640  0.61568059     0.00390
C1731       C  0.28522498  0.05871590  0.59534450    -0.08180
C1732       C  0.28049880  0.05451861  0.56489675    -0.05560
C1733       C  0.25522869  0.03996483  0.55371581     0.00380
C1734       C  0.23323116  0.03017947  0.57411644    -0.08090
C1735       C  0.20299266  0.01920542  0.56394853     0.62290
H1736       H  0.22475688  0.02124541  0.62072311     0.12980
H1737       H  0.29635462  0.06402620  0.54953520     0.12990
C1738       C  0.30998884  0.08002488  0.60402498     0.62520
F1739       F  0.18558895  0.01014890  0.58756776    -0.22640
F1740       F  0.20625211  0.99537731  0.54500518    -0.19970
F1741       F  0.18806372  0.04188422  0.54938187    -0.19650
F1742       F  0.33704222  0.06788956  0.59602118    -0.19700
F1743       F  0.31045975  0.08685888  0.63398072    -0.20030
F1744       F  0.30616830  0.10650324  0.58876397    -0.22700
C1745       C  0.11048654  0.02708244  0.71526971    -0.05540
C1746       C  0.09339368  0.04666353  0.73253083     0.00390
C1747       C  0.10781789  0.06835109  0.75037505    -0.08180
C1748       C  0.13904278  0.06910526  0.75080496    -0.05560
C1749       C  0.15626934  0.04848932  0.73487473     0.00380
C1750       C  0.14183423  0.02717670  0.71644599    -0.08090
C1751       C  0.15900416  0.00378445  0.69907734     0.62290
H1752       H  0.09895624  0.01088171  0.70160259     0.12980
H1753       H  0.15044267  0.08523272  0.76466841     0.12990
C1754       C  0.09052184  0.09059237  0.76904556     0.62520
F1755       F  0.14033910  0.98226642  0.68728310    -0.22640
F1756       F  0.17932059  0.98962075  0.71745834    -0.19970
F1757       F  0.17377580  0.01693322  0.67568545    -0.19650
F1758       F  0.07694013  0.07609862  0.79241131    -0.19700
F1759       F  0.06915245  0.10455711  0.75172183    -0.20030
F1760       F  0.10882680  0.11236259  0.78094627    -0.22700
C1761       C  0.25776692  0.02857516  0.82078290    -0.05540
C1762       C  0.23712855  0.04963071  0.81015184     0.00390
C1763       C  0.22295170  0.06899563  0.83062961    -0.08180
C1764       C  0.22709745  0.06409814  0.86111711    -0.05560
C1765       C  0.24679274  0.04238091  0.87190743     0.00380
C1766       C  0.26332818  0.02495442  0.85150056    -0.08090
C1767       C  0.28570175  0.00187812  0.86201909     0.62290
H1768       H  0.26873549  0.01426174  0.80484142     0.12980
H1769       H  0.21508017  0.07787088  0.87684050     0.12990
C1770       C  0.20317206  0.09497097  0.82157236     0.62520
F1771       F  0.29745652  0.98578516  0.83857626    -0.22640
F1772       F  0.27214984  0.98209676  0.88117302    -0.19970
F1773       F  0.30897959  0.01583903  0.87658849    -0.19650
F1774       F  0.17369679  0.08730124  0.82561966    -0.19700
F1775       F  0.20733915  0.10348652  0.79235743    -0.20030
F1776       F  0.20954204  0.11945956  0.83917197    -0.22700
C1777       C  0.00652958  0.28387618  0.60321703    -0.05540
C1778       C  0.98685166  0.30485664  0.61545618     0.00390
C1779       C  0.96589502  0.31924080  0.59661735    -0.08180
C1780       C  0.96849209  0.31555265  0.56581317    -0.05560
C1781       C  0.98917796  0.29580357  0.55337969     0.00380
C1782       C  0.00744074  0.27838992  0.57239450    -0.08090
C1783       C  0.02857338  0.25510112  0.56027075     0.62290
H1784       H  0.02193642  0.27250945  0.61792703     0.12980
H1785       H  0.95384029  0.32806807  0.55118557     0.12990
C1786       C  0.94042178  0.33848384  0.60771785     0.62520
F1787       F  0.04546993  0.24197104  0.58252307    -0.22640
F1788       F  0.04772565  0.26809412  0.54028383    -0.19970
F1789       F  0.01252835  0.23294187  0.54614008    -0.19650
F1790       F  0.94706998  0.36812879  0.60298822    -0.19700
F1791       F  0.93451710  0.33412293  0.63753566    -0.20030
F1792       F  0.91468322  0.33158084  0.59215901    -0.22700
C1793       C  0.96936752  0.39622811  0.70346194    -0.05540
C1794       C  0.99568795  0.38246661  0.69392548     0.00390
C1795       C  0.02200355  0.39942935  0.69094050    -0.08180
C1796       C  0.02058240  0.43028778  0.69583264    -0.05560
C1797       C  0.99396978  0.44422558  0.70408062     0.00380
C1798       C  0.96806803  0.42709331  0.70865003    -0.08090
C1799       C  0.93907186  0.44166007  0.71778088     0.62290
H1800       H  0.94960634  0.38270201  0.70584297     0.12980
H1801       H  0.04014139  0.44395316  0.69264809     0.12990
C1802       C  0.05139210  0.38494181  0.68280013     0.62520
F1803       F  0.91641149  0.42108559  0.72080852    -0.22640
F1804       F  0.93051204  0.46218955  0.69648535    -0.19970
F1805       F  0.94283334  0.45598225  0.74476939    -0.19650
F1806       F  0.04979536  0.37331624  0.65437990    -0.19700
F1807       F  0.05775011  0.36229255  0.70266380    -0.20030
F1808       F  0.07466884  0.40507005  0.68370216    -0.22700
C1809       C  0.01068716  0.14371119  0.71409021    -0.05540
C1810       C  0.99041055  0.12671471  0.73042616     0.00390
C1811       C  0.96722541  0.14108321  0.74612025    -0.08180
C1812       C  0.96598864  0.17234256  0.74593073    -0.05560
C1813       C  0.98741947  0.18948422  0.73119798     0.00380
C1814       C  0.01001454  0.17502740  0.71458987    -0.08090
C1815       C  0.03425000  0.19234500  0.69875501     0.62290
H1816       H  0.02796493  0.13215400  0.70196085     0.12980
H1817       H  0.94908821  0.18381751  0.75865770     0.12990
C1818       C  0.94395826  0.12359772  0.76309266     0.62520
F1819       F  0.05559868  0.17370524  0.68672871    -0.22640
F1820       F  0.04839127  0.21129491  0.71852304    -0.19970
F1821       F  0.02199445  0.20873210  0.67576166    -0.19650
F1822       F  0.95696022  0.10982955  0.78738819    -0.19700
F1823       F  0.93136303  0.10231011  0.74471948    -0.20030
F1824       F  0.92134258  0.14177500  0.77339408    -0.22700
C1825       C  0.02503900  0.25236074  0.82283636    -0.05540
C1826       C  0.00228335  0.26725109  0.80749709     0.00390
C1827       C  0.98182532  0.28524391  0.82341042    -0.08180
C1828       C  0.98403341  0.28619647  0.85463144    -0.05560
C1829       C  0.00559740  0.26961570  0.87001424     0.00380
C1830       C  0.02716351  0.25324247  0.85390948    -0.08090
C1831       C  0.05302545  0.23777000  0.86923991     0.62290
H1832       H  0.04063211  0.23910995  0.81014394     0.12980
H1833       H  0.96828114  0.29914916  0.86741470     0.12990
C1834       C  0.95715328  0.30247402  0.80782930     0.62520
F1835       F  0.07324608  0.22635443  0.84908933    -0.22640
F1836       F  0.04296205  0.21442453  0.88642637    -0.19970
F1837       F  0.06774443  0.25815676  0.88693991    -0.19650
F1838       F  0.94068758  0.28362029  0.78986336    -0.19700
F1839       F  0.96926000  0.32485534  0.79071478    -0.20030
F1840       F  0.93792485  0.31561900  0.82789830    -0.22700
C1841       C  0.39317238  0.02404402  0.71703055    -0.05540
C1842       C  0.41060718  0.03089532  0.69203208     0.00390
C1843       C  0.39583189  0.03655910  0.66449546    -0.08180
C1844       C  0.36495513  0.03997043  0.66460062    -0.05560
C1845       C  0.34709286  0.03195583  0.68886228     0.00380
C1846       C  0.36175133  0.02220211  0.71535989    -0.08090
C1847       C  0.34571578  0.00875162  0.74174882     0.62290
H1848       H  0.40431792  0.01857229  0.73775119     0.12980
H1849       H  0.35452893  0.04877203  0.64490218     0.12990
C1850       C  0.41153179  0.03805290  0.63447326     0.62520
F1851       F  0.36324823  0.98713920  0.75510238    -0.22640
F1852       F  0.31946291  0.99511260  0.73325288    -0.19970
F1853       F  0.33994516  0.03065585  0.76256179    -0.19650
F1854       F  0.42672217  0.01172165  0.62946265    -0.19700
F1855       F  0.43099852  0.06172438  0.63367672    -0.20030
F1856       F  0.39179283  0.04156943  0.61099426    -0.22700
C1857       C  0.52370159  0.32101589  0.82709176    -0.05540
C1858       C  0.50191028  0.30475291  0.81152193     0.00390
C1859       C  0.48227094  0.28608687  0.82752354    -0.08180
C1860       C  0.48502369  0.28483280  0.85873238    -0.05560
C1861       C  0.50567672  0.30247540  0.87427193     0.00380
C1862       C  0.52553381  0.32079429  0.85828281    -0.08090
C1863       C  0.54840604  0.34022479  0.87393583     0.62290
H1864       H  0.53848581  0.33514263  0.81449531     0.12980
H1865       H  0.47020977  0.27083099  0.87145287     0.12990
C1866       C  0.45770680  0.26860684  0.81211721     0.62520
F1867       F  0.56774714  0.35336690  0.85404020    -0.22640
F1868       F  0.56507565  0.32326042  0.89356678    -0.19970
F1869       F  0.53417191  0.36271574  0.88933287    -0.19650
F1870       F  0.46991960  0.24644626  0.79470843    -0.19700
F1871       F  0.44074190  0.28735566  0.79447058    -0.20030
F1872       F  0.43889383  0.25519374  0.83233592    -0.22700
C1873       C  0.47307495  0.39534729  0.71682371    -0.05540
C1874       C  0.49560758  0.38217099  0.73414084     0.00390
C1875       C  0.51926208  0.39998485  0.74521296    -0.08180
C1876       C  0.51749415  0.43084418  0.74170213    -0.05560
C1877       C  0.49452006  0.44419113  0.72535776     0.00380
C1878       C  0.47237768  0.42628735  0.71179662    -0.08090
C1879       C  0.44741633  0.43992242  0.69353669     0.62290
H1880       H  0.45552616  0.38130362  0.70808422     0.12980
H1881       H  0.53459409  0.44480288  0.75155067     0.12990
C1882       C  0.54665138  0.38770399  0.76099113     0.62520
F1883       F  0.42734727  0.41870453  0.68369442    -0.22640
F1884       F  0.45901354  0.45399731  0.66887029    -0.19970
F1885       F  0.43218583  0.46037055  0.71066494    -0.19650
F1886       F  0.55140762  0.35789356  0.75502638    -0.19700
F1887       F  0.54362601  0.39166611  0.79131792    -0.20030
F1888       F  0.57172489  0.40285096  0.75170708    -0.22700
C1889       C  0.51595834  0.14332820  0.71240905    -0.05540
C1890       C  0.49693631  0.12694967  0.69370849     0.00390
C1891       C  0.47661101  0.14229307  0.67498666    -0.08180
C1892       C  0.47663312  0.17353834  0.67514980    -0.05560
C1893       C  0.49675655  0.19000428  0.69256883     0.00380
C1894       C  0.51663385  0.17470306  0.71193188    -0.08090
C1895       C  0.53917155  0.19098773  0.73129879     0.62290
H1896       H  0.53098068  0.13119779  0.72691692     0.12980
H1897       H  0.46148794  0.18556703  0.66067939     0.12990
C1898       C  0.45465168  0.12594429  0.65517279     0.62520
F1899       F  0.55931766  0.17157360  0.74433674    -0.22640
F1900       F  0.52473611  0.20589821  0.75389738    -0.19970
F1901       F  0.55509982  0.21106685  0.71442585    -0.19650
F1902       F  0.43850987  0.10609814  0.67209839    -0.19700
F1903       F  0.46974911  0.11086872  0.63307903    -0.20030
F1904       F  0.43473789  0.14514946  0.64147703    -0.22700
C1905       C  0.52785008  0.27353998  0.60221106    -0.05540
C1906       C  0.50125866  0.27070551  0.61798100     0.00390
C1907       C  0.47360111  0.27390428  0.60303105    -0.08180
C1908       C  0.47349876  0.27856620  0.57210929    -0.05560
C1909       C  0.50007652  0.28002751  0.55613357     0.00380
C1910       C  0.52769590  0.27809809  0.57127691    -0.08090
C1911       C  0.55671660  0.27930651  0.55443657     0.62290
H1912       H  0.54868080  0.27093840  0.61416214     0.12980
H1913       H  0.45266033  0.28009278  0.55997784     0.12990
C1914       C  0.44440697  0.27172799  0.61968879     0.62520
F1915       F  0.58116092  0.27826286  0.57327414    -0.22640
F1916       F  0.55816144  0.30534592  0.53813671    -0.19970
F1917       F  0.55815611  0.25523726  0.53543830    -0.19650
F1918       F  0.44350215  0.29319341  0.64172253    -0.19700
F1919       F  0.44182934  0.24390374  0.63250727    -0.20030
F1920       F  0.42013919  0.27603189  0.60108157    -0.22700
C1921       C  0.96952731  0.76101187  0.57160896    -0.05540
C1922       C  0.99331777  0.77526414  0.55751290     0.00390
C1923       C  0.01641486  0.78802815  0.57489113    -0.08180
C1924       C  0.01635145  0.78327606  0.60582586    -0.05560
C1925       C  0.99333972  0.76757049  0.61970009     0.00380
C1926       C  0.96854563  0.75799784  0.60269866    -0.08090
C1927       C  0.94076052  0.74586289  0.61738103     0.62290
H1928       H  0.95167995  0.75211696  0.55800870     0.12980
H1929       H  0.03470289  0.79111997  0.61941767     0.12990
C1930       C  0.04129878  0.80594113  0.56090744     0.62520
F1931       F  0.91753264  0.74300621  0.59722875    -0.22640
F1932       F  0.93172614  0.76516514  0.63956890    -0.19970
F1933       F  0.94626431  0.71821154  0.62960090    -0.19650
F1934       F  0.02964601  0.83126514  0.54783706    -0.19700
F1935       F  0.05557886  0.78921479  0.53954444    -0.20030
F1936       F  0.06233059  0.81472282  0.58173004    -0.22700
C1937       C  0.02279455  0.63787762  0.68203999    -0.05540
C1938       C  0.00365484  0.62699997  0.70407153     0.00390
C1939       C  0.98931234  0.64743474  0.72336880    -0.08180
C1940       C  0.99299770  0.67815530  0.71822233    -0.05560
C1941       C  0.01129512  0.68891520  0.69536930     0.00380
C1942       C  0.02788447  0.66838101  0.67813792    -0.08090
C1943       C  0.05128519  0.67725172  0.65557574     0.62290
H1944       H  0.03453293  0.62221593  0.66795061     0.12980
H1945       H  0.98069185  0.69410978  0.73139817     0.12990
C1946       C  0.96946678  0.63715978  0.74855967     0.62520
F1947       F  0.07657711  0.66012039  0.65976578    -0.22640
F1948       F  0.05972356  0.70671522  0.65811077    -0.19970
F1949       F  0.04044120  0.67219755  0.62717424    -0.19650
F1950       F  0.98632803  0.62209505  0.76950979    -0.19700
F1951       F  0.94746486  0.61858210  0.73768330    -0.20030
F1952       F  0.95576026  0.66081515  0.76274709    -0.22700
C1953       C  0.02188048  0.82258094  0.82874671    -0.05540
C1954       C  0.00185250  0.80508972  0.81211211     0.00390
C1955       C  0.98273620  0.78512539  0.82732143    -0.08180
C1956       C  0.98419710  0.78409122  0.85866989    -0.05560
C1957       C  0.00286557  0.80310277  0.87508801     0.00380
C1958       C  0.02219445  0.82266807  0.85991407    -0.08090
C1959       C  0.04314271  0.84367562  0.87630769     0.62290
H1960       H  0.03673175  0.83729424  0.81689852     0.12980
H1961       H  0.97014376  0.76879322  0.87072548     0.12990
C1962       C  0.96046443  0.76534110  0.81123990     0.62520
F1963       F  0.06244621  0.85792477  0.85714443    -0.22640
F1964       F  0.06007048  0.82799087  0.89675597    -0.19970
F1965       F  0.02687930  0.86536666  0.89081915    -0.19650
F1966       F  0.97502235  0.74137331  0.79865745    -0.19700
F1967       F  0.94558894  0.78116687  0.78936915    -0.20030
F1968       F  0.93933534  0.75421981  0.83054112    -0.22700
C1969       C  0.02864193  0.89765150  0.75333133    -0.05540
C1970       C  0.00896457  0.88176236  0.73482268     0.00390
C1971       C  0.99080658  0.89750064  0.71425707    -0.08180
C1972       C  0.99259950  0.92878011  0.71366422    -0.05560
C1973       C  0.01088297  0.94464632  0.73353842     0.00380
C1974       C  0.02950896  0.92887908  0.75359961    -0.08090
C1975       C  0.04991730  0.94467221  0.77555943     0.62290
H1976       H  0.04233988  0.88522403  0.76887126     0.12980
H1977       H  0.97871658  0.94126505  0.69835050     0.12990
C1978       C  0.96876123  0.88179870  0.69387299     0.62520
F1979       F  0.06912374  0.92505090  0.78966683    -0.22640
F1980       F  0.03314165  0.95853982  0.79723047    -0.19970
F1981       F  0.06693310  0.96561141  0.76091618    -0.19650
F1982       F  0.95109275  0.86267042  0.71010003    -0.19700
F1983       F  0.98385642  0.86591755  0.67239744    -0.20030
F1984       F  0.95019010  0.90176452  0.67940829    -0.22700
C1985       C  0.71493896  0.01756043  0.59982272    -0.05540
C1986       C  0.73323949  0.03781646  0.61523560     0.00390
C1987       C  0.75301868  0.05600794  0.59886967    -0.08180
C1988       C  0.75360641  0.05313401  0.56761231    -0.05560
C1989       C  0.73419455  0.03392709  0.55227024     0.00380
C1990       C  0.71442287  0.01577427  0.56864022    -0.08090
C1991       C  0.69262123  0.99471284  0.55351988     0.62290
H1992       H  0.69992190  0.00384035  0.61261774     0.12980
H1993       H  0.76875310  0.06661822  0.55474744     0.12990
C1994       C  0.77287291  0.07885539  0.61386606     0.62520
F1995       F  0.67844044  0.97645732  0.57375517    -0.22640
F1996       F  0.70744393  0.97669920  0.53349754    -0.19970
F1997       F  0.67095801  0.01092812  0.53873502    -0.19650
F1998       F  0.79563744  0.06455812  0.62876380    -0.19700
F1999       F  0.75666771  0.09580929  0.63372033    -0.20030
F2000       F  0.78554608  0.09800501  0.59345213    -0.22700
C2001       C  0.64037259  0.02021326  0.67264799    -0.05540
C2002       C  0.65699452  0.03792466  0.69220774     0.00390
C2003       C  0.64211601  0.05473323  0.71438761    -0.08180
C2004       C  0.61080342  0.05292565  0.71599563    -0.05560
C2005       C  0.59415346  0.03654636  0.69512670     0.00380
C2006       C  0.60928774  0.02018123  0.67265336    -0.08090
C2007       C  0.59329445  0.00345911  0.64782625     0.62290
H2008       H  0.65220637  0.00747211  0.65600447     0.12980
H2009       H  0.59896302  0.06532119  0.73287977     0.12990
C2010       C  0.65874000  0.07543463  0.73537966     0.62520
F2011       F  0.61245169  0.98575934  0.63147463    -0.22640
F2012       F  0.58025406  0.02355625  0.62844344    -0.19970
F2013       F  0.57178872  0.98515685  0.65949270    -0.19650
F2014       F  0.67779975  0.09349676  0.71950710    -0.19700
F2015       F  0.67486574  0.05905450  0.75584775    -0.20030
F2016       F  0.63947424  0.09367267  0.75097798    -0.22700
C2017       C  0.78136722  0.05975871  0.82484297    -0.05540
C2018       C  0.76888163  0.03610019  0.80875766     0.00390
C2019       C  0.75174355  0.01436438  0.82379155    -0.08180
C2020       C  0.74810558  0.01699122  0.85477111    -0.05560
C2021       C  0.76203738  0.03971598  0.87101795     0.00380
C2022       C  0.77860052  0.06181148  0.85588375    -0.08090
C2023       C  0.79369139  0.08726443  0.87230693     0.62290
H2024       H  0.79454150  0.07594560  0.81291428     0.12980
H2025       H  0.73557972  0.00039516  0.86683258     0.12990
C2026       C  0.73879705  0.98762284  0.80758842     0.62520
F2027       F  0.80447331  0.10854697  0.85292796    -0.22640
F2028       F  0.81737009  0.07656215  0.88887810    -0.19970
F2029       F  0.77368388  0.10106692  0.89098949    -0.19650
F2030       F  0.76103601  0.97277201  0.79243442    -0.19700
F2031       F  0.71717742  0.99681354  0.78765128    -0.20030
F2032       F  0.72582801  0.96765366  0.82700640    -0.22700
C2033       C  0.86596649  0.00279666  0.75216450    -0.05540
C2034       C  0.84867998  0.02169769  0.73410229     0.00390
C2035       C  0.86322855  0.04149419  0.71426052    -0.08180
C2036       C  0.89450165  0.04181390  0.71375877    -0.05560
C2037       C  0.91156772  0.02430062  0.73316324     0.00380
C2038       C  0.89719683  0.00419218  0.75263148    -0.08090
C2039       C  0.91449416  0.98453780  0.77414407     0.62290
H2040       H  0.85459068  0.98789433  0.76719861     0.12980
H2041       H  0.90601767  0.05673026  0.69884571     0.12990
C2042       C  0.84635433  0.06288314  0.69414932     0.62520
F2043       F  0.89635315  0.96385588  0.78782609    -0.22640
F2044       F  0.92728199  0.00186407  0.79618147    -0.19970
F2045       F  0.93648321  0.96918053  0.75913184    -0.19650
F2046       F  0.82524315  0.07847337  0.71013434    -0.19700
F2047       F  0.83276182  0.04708764  0.67157220    -0.20030
F2048       F  0.86503666  0.08350476  0.68110991    -0.22700
C2049       C  0.75574223  0.67787778  0.95871093    -0.05540
C2050       C  0.73423770  0.69000166  0.97783686     0.00390
C2051       C  0.71844442  0.67071432  0.99706684    -0.08180
C2052       C  0.72192616  0.63984977  0.99362995    -0.05560
C2053       C  0.74225705  0.62766387  0.97338962     0.00380
C2054       C  0.76045856  0.64696355  0.95646397    -0.08090
C2055       C  0.78368596  0.63513657  0.93505046     0.62290
H2056       H  0.76785202  0.69282700  0.94432812     0.12980
H2057       H  0.70875473  0.62500336  0.00724573     0.12990
C2058       C  0.69791396  0.68135608  0.02158320     0.62520
F2059       F  0.79705729  0.65774661  0.91909659    -0.22640
F2060       F  0.77060066  0.61577842  0.91494871    -0.19970
F2061       F  0.80575183  0.62040023  0.95075909    -0.19650
F2062       F  0.66879129  0.67485573  0.01396851    -0.19700
F2063       F  0.70038230  0.71153302  0.02704759    -0.20030
F2064       F  0.70494119  0.66670640  0.04776125    -0.22700
C2065       C  0.64507858  0.79080627  0.96698675    -0.05540
C2066       C  0.65617460  0.76506697  0.95307804     0.00390
C2067       C  0.63585256  0.74550316  0.93890206    -0.08180
C2068       C  0.60536314  0.74941582  0.94390982    -0.05560
C2069       C  0.59408961  0.77432083  0.95913330     0.00380
C2070       C  0.61431645  0.79657074  0.96900294    -0.08090
C2071       C  0.60395343  0.82592291  0.98205120     0.62290
H2072       H  0.66074201  0.80605259  0.97714384     0.12980
H2073       H  0.59003664  0.73319711  0.93468645     0.12990
C2074       C  0.64490049  0.72086368  0.91761655     0.62520
F2075       F  0.62752065  0.84350336  0.99131797    -0.22640
F2076       F  0.58612868  0.82076269  0.00631531    -0.19970
F2077       F  0.58815903  0.84172050  0.96081042    -0.19650
F2078       F  0.63994807  0.69349825  0.93071069    -0.19700
F2079       F  0.67436297  0.72275269  0.90918293    -0.20030
F2080       F  0.62782358  0.72276445  0.89197967    -0.22700
C2081       C  0.86147937  0.78417569  0.95043784    -0.05540
C2082       C  0.84830222  0.80553060  0.96908573     0.00390
C2083       C  0.86644678  0.82152260  0.98942131    -0.08180
C2084       C  0.89735851  0.81872465  0.98727666    -0.05560
C2085       C  0.91073427  0.79790273  0.96828984     0.00380
C2086       C  0.89249078  0.77946028  0.95022476    -0.08090
C2087       C  0.90559100  0.75602359  0.92977566     0.62290
H2088       H  0.84732505  0.77188405  0.93524767     0.12980
H2089       H  0.91124968  0.83275209  0.00116454     0.12990
C2090       C  0.85455187  0.84143013  0.01399790     0.62520
F2091       F  0.88399575  0.74241970  0.91243313    -0.22640
F2092       F  0.91943811  0.73418111  0.94652241    -0.19970
F2093       F  0.92603877  0.76897649  0.91095892    -0.19650
F2094       F  0.82456272  0.83725688  0.01914721    -0.19700
F2095       F  0.85948323  0.87089487  0.00671930    -0.20030
F2096       F  0.86938957  0.83517425  0.04032869    -0.22700
C2097       C  0.74882307  0.89391326  0.97165741    -0.05540
C2098       C  0.76998514  0.88221478  0.95196279     0.00390
C2099       C  0.78530954  0.90195881  0.93274825    -0.08180
C2100       C  0.78167140  0.93275854  0.93669148    -0.05560
C2101       C  0.76144648  0.94454724  0.95725138     0.00380
C2102       C  0.74382010  0.92476005  0.97426101    -0.08090
C2103       C  0.72148347  0.93603583  0.99668655     0.62290
H2104       H  0.73720116  0.87869911  0.98615736     0.12980
H2105       H  0.79444260  0.94788634  0.92300677     0.12990
C2106       C  0.80542369  0.89190323  0.90762036     0.62520
F2107       F  0.70828730  0.91310852  0.01234030    -0.22640
F2108       F  0.69913250  0.95173712  0.98239211    -0.19970
F2109       F  0.73593569  0.95423164  0.01680132    -0.19650
F2110       F  0.80226074  0.86204184  0.90092558    -0.19700
F2111       F  0.83473254  0.89750994  0.91523701    -0.20030
F2112       F  0.79851824  0.90770805  0.88208735    -0.22700
C2113       C  0.75325312  0.53931546  0.82090843    -0.05540
C2114       C  0.72682901  0.55251596  0.81025743     0.00390
C2115       C  0.70788811  0.56693483  0.83090146    -0.08180
C2116       C  0.71314998  0.56278658  0.86140600    -0.05560
C2117       C  0.73855135  0.54789467  0.87223760     0.00380
C2118       C  0.76024807  0.53809175  0.85152159    -0.08090
C2119       C  0.79054214  0.52646712  0.86118309     0.62290
H2120       H  0.76814044  0.52908741  0.80505712     0.12980
H2121       H  0.69743870  0.57216903  0.87705884     0.12990
C2122       C  0.68248379  0.58756272  0.82219292     0.62520
F2123       F  0.80785016  0.51821367  0.83716227    -0.22640
F2124       F  0.78743137  0.50189086  0.87925292    -0.19970
F2125       F  0.80561462  0.54854751  0.87648614    -0.19650
F2126       F  0.65562610  0.57387972  0.82807875    -0.19700
F2127       F  0.68328582  0.59572815  0.79257602    -0.20030
F2128       F  0.68424695  0.61345283  0.83880776    -0.22700
C2129       C  0.63774537  0.54414468  0.71062008    -0.05540
C2130       C  0.65019402  0.52625821  0.73317466     0.00390
C2131       C  0.63134478  0.50706027  0.74944731    -0.08180
C2132       C  0.60046946  0.50980043  0.74570220    -0.05560
C2133       C  0.58785152  0.52897192  0.72441843     0.00380
C2134       C  0.60683001  0.54522905  0.70530348    -0.08090
C2135       C  0.59475814  0.56423541  0.68003199     0.62290
H2136       H  0.65242220  0.55825652  0.69788317     0.12980
H2137       H  0.58595106  0.49633580  0.75937704     0.12990
C2138       C  0.64244561  0.48308725  0.77055164     0.62520
F2139       F  0.61713208  0.57946299  0.66551611    -0.22640
F2140       F  0.57477299  0.58495819  0.69077716    -0.19970
F2141       F  0.58065475  0.54624680  0.65937590    -0.19650
F2142       F  0.63584361  0.49109834  0.79947263    -0.19700
F2143       F  0.67269173  0.47806459  0.76827232    -0.20030
F2144       F  0.62825974  0.45652930  0.76405920    -0.22700
C2145       C  0.74212160  0.52383327  0.60567715    -0.05540
C2146       C  0.76279441  0.54384421  0.61796435     0.00390
C2147       C  0.77763556  0.56409484  0.59900027    -0.08180
C2148       C  0.77422896  0.56092061  0.56817379    -0.05560
C2149       C  0.75432096  0.54035651  0.55565974     0.00380
C2150       C  0.73703245  0.52215866  0.57471631    -0.08090
C2151       C  0.71406054  0.50047031  0.56263340     0.62290
H2152       H  0.73058560  0.50890415  0.62055304     0.12980
H2153       H  0.78691407  0.57527136  0.55361474     0.12990
C2154       C  0.79698519  0.58957564  0.60998752     0.62520
F2155       F  0.70184132  0.48321753  0.58492374    -0.22640
F2156       F  0.72695506  0.48152429  0.54218340    -0.19970
F2157       F  0.69119329  0.51606004  0.54906267    -0.19650
F2158       F  0.82654008  0.58289613  0.60480256    -0.19700
F2159       F  0.79323305  0.59555221  0.63989330    -0.20030
F2160       F  0.78967195  0.61527640  0.59463260    -0.22700
C2161       C  0.85807454  0.55944899  0.68070477    -0.05540
C2162       C  0.84149118  0.53742711  0.69530163     0.00390
C2163       C  0.85649071  0.51644904  0.71369332    -0.08180
C2164       C  0.88768514  0.51848851  0.71658554    -0.05560
C2165       C  0.90419641  0.53952154  0.70060051     0.00380
C2166       C  0.88921786  0.56046592  0.68235454    -0.08090
C2167       C  0.90585417  0.58372950  0.66444172     0.62290
H2168       H  0.84630701  0.57537516  0.66691009     0.12980
H2169       H  0.89961007  0.50290068  0.73063536     0.12990
C2170       C  0.84028950  0.49127982  0.72927260     0.62520
F2171       F  0.88674554  0.60438073  0.65174809    -0.22640
F2172       F  0.92133303  0.57008325  0.64170491    -0.19970
F2173       F  0.92554593  0.59892814  0.68260721    -0.19650
F2174       F  0.82063214  0.47756951  0.70988044    -0.19700
F2175       F  0.82494860  0.50221636  0.75346836    -0.20030
F2176       F  0.85989309  0.46977086  0.73955660    -0.22700
C2177       C  0.74875340  0.89196709  0.46825618    -0.05540
C2178       C  0.72480323  0.88039801  0.45162937     0.00390
C2179       C  0.70707231  0.90020382  0.43447457    -0.08180
C2180       C  0.71136138  0.93094049  0.43787341    -0.05560
C2181       C  0.73444077  0.94268475  0.45549377     0.00380
C2182       C  0.75444582  0.92280919  0.46988685    -0.08090
C2183       C  0.78106253  0.93386619  0.48762823     0.62290
H2184       H  0.76246221  0.87662101  0.48086615     0.12980
H2185       H  0.69677572  0.94606093  0.42589973     0.12990
C2186       C  0.68372274  0.89028687  0.41200465     0.62520
F2187       F  0.79624669  0.91080620  0.50140010    -0.22640
F2188       F  0.77180942  0.95349412  0.50942510    -0.19970
F2189       F  0.80073812  0.94801065  0.46882938    -0.19650
F2190       F  0.65567737  0.89561234  0.42333924    -0.19700
F2191       F  0.68623230  0.86052884  0.40458922    -0.20030
F2192       F  0.68685607  0.90639789  0.38599777    -0.22700
C2193       C  0.63187031  0.81685745  0.49239106    -0.05540
C2194       C  0.64836286  0.80253097  0.47016688     0.00390
C2195       C  0.63333471  0.78485816  0.44858498    -0.08180
C2196       C  0.60211952  0.78271714  0.44987804    -0.05560
C2197       C  0.58560326  0.79874697  0.47082977     0.00380
C2198       C  0.60063486  0.81557798  0.49296511    -0.08090
C2199       C  0.58390105  0.83210242  0.51716228     0.62290
H2200       H  0.64372070  0.83030578  0.50856085     0.12980
H2201       H  0.59018133  0.76947119  0.43363117     0.12990
C2202       C  0.64974393  0.76960491  0.42329744     0.62520
F2203       F  0.60292103  0.84325752  0.53876704    -0.22640
F2204       F  0.56422970  0.81302579  0.53088999    -0.19970
F2205       F  0.56838856  0.85576097  0.50499521    -0.19650
F2206       F  0.66728416  0.74686407  0.43436242    -0.19700
F2207       F  0.66740550  0.78991217  0.40854071    -0.20030
F2208       F  0.63031494  0.75733881  0.40268525    -0.22700
C2209       C  0.74913502  0.67545189  0.48003250    -0.05540
C2210       C  0.76183793  0.68775504  0.45437007     0.00390
C2211       C  0.76679545  0.66933265  0.42927788    -0.08180
C2212       C  0.76172970  0.63859177  0.43179932    -0.05560
C2213       C  0.75091981  0.62606321  0.45808330     0.00380
C2214       C  0.74339545  0.64470961  0.48226697    -0.08090
C2215       C  0.73048454  0.63193278  0.51057677     0.62290
H2216       H  0.74473588  0.69001363  0.49871290     0.12980
H2217       H  0.76715298  0.62387503  0.41349393     0.12990
C2218       C  0.77816139  0.68172922  0.40020574     0.62520
F2219       F  0.72493803  0.65380681  0.53153573    -0.22640
F2220       F  0.75018331  0.61167617  0.52284215    -0.19970
F2221       F  0.70393588  0.61774775  0.50418162    -0.19650
F2222       F  0.80790982  0.68836300  0.40321439    -0.19700
F2223       F  0.76253243  0.70716159  0.39254081    -0.20030
F2224       F  0.77506663  0.66146237  0.37717902    -0.22700
C2225       C  0.85289589  0.78174432  0.48234573    -0.05540
C2226       C  0.84069728  0.76617908  0.45796777     0.00390
C2227       C  0.85972441  0.75727098  0.43455747    -0.08180
C2228       C  0.89044048  0.75983065  0.43860225    -0.05560
C2229       C  0.90280884  0.77487909  0.46287093     0.00380
C2230       C  0.88380799  0.78705115  0.48474275    -0.08090
C2231       C  0.89626027  0.80433302  0.51093372     0.62290
H2232       H  0.83810555  0.78910358  0.49980511     0.12980
H2233       H  0.90496801  0.75037492  0.42209448     0.12990
C2234       C  0.84931508  0.74616965  0.40438660     0.62520
F2235       F  0.87414022  0.81315645  0.53034989    -0.22640
F2236       F  0.91053665  0.82956729  0.50082495    -0.19970
F2237       F  0.91633766  0.78684135  0.52643631    -0.19650
F2238       F  0.86221844  0.76333008  0.38243838    -0.19700
F2239       F  0.81887550  0.74799462  0.40045333    -0.20030
F2240       F  0.85845265  0.71702324  0.40065276    -0.22700
C2241       C  0.52137371  0.75543681  0.82632897    -0.05540
C2242       C  0.49684625  0.76760094  0.81117719     0.00390
C2243       C  0.47504243  0.78377318  0.82713587    -0.08180
C2244       C  0.47835469  0.78647258  0.85819562    -0.05560
C2245       C  0.50216827  0.77299417  0.87338449     0.00380
C2246       C  0.52437392  0.75763378  0.85728202    -0.08090
C2247       C  0.55137303  0.74404234  0.87257116     0.62290
H2248       H  0.53785382  0.74334476  0.81360623     0.12980
H2249       H  0.46179704  0.79828484  0.87106219     0.12990
C2250       C  0.44791943  0.79705671  0.81181745     0.62520
F2251       F  0.57181119  0.73322738  0.85231596    -0.22640
F2252       F  0.54278781  0.72061798  0.89045266    -0.19970
F2253       F  0.56537018  0.76544692  0.88971236    -0.19650
F2254       F  0.43359434  0.77549574  0.79511852    -0.19700
F2255       F  0.45641641  0.82010329  0.79345260    -0.20030
F2256       F  0.42775896  0.80833570  0.83209709    -0.22700
C2257       C  0.52107669  0.67328423  0.74828942    -0.05540
C2258       C  0.49829018  0.68953686  0.73433490     0.00390
C2259       C  0.47644468  0.67442638  0.71725604    -0.08180
C2260       C  0.47836050  0.64322598  0.71472793    -0.05560
C2261       C  0.50040834  0.62691329  0.72982731     0.00380
C2262       C  0.52228169  0.64209959  0.74683923    -0.08090
C2263       C  0.54661096  0.62565117  0.76376762     0.62290
H2264       H  0.53730587  0.68532377  0.76150497     0.12980
H2265       H  0.46182195  0.63113458  0.70196510     0.12990
C2266       C  0.45042755  0.69088873  0.70313663     0.62520
F2267       F  0.56786706  0.64492163  0.77505623    -0.22640
F2268       F  0.56081938  0.60577988  0.74516648    -0.19970
F2269       F  0.53439952  0.61037279  0.78738552    -0.19650
F2270       F  0.46052595  0.70972709  0.68115889    -0.19700
F2271       F  0.43568802  0.70734750  0.72450889    -0.20030
F2272       F  0.43013995  0.67153169  0.69031226    -0.22700
C2273       C  0.47070602  0.81546910  0.60332836    -0.05540
C2274       C  0.49530066  0.80373992  0.61863039     0.00390
C2275       C  0.51759985  0.78805324  0.60288087    -0.08180
C2276       C  0.51471982  0.78529065  0.57185234    -0.05560
C2277       C  0.49110235  0.79870265  0.55639700     0.00380
C2278       C  0.46819601  0.81325424  0.57228190    -0.08090
C2279       C  0.44096249  0.82576416  0.55659397     0.62290
H2280       H  0.45394517  0.82730061  0.61591849     0.12980
H2281       H  0.53160872  0.77372147  0.55921556     0.12990
C2282       C  0.54499290  0.77565229  0.61849555     0.62520
F2283       F  0.41996230  0.83604573  0.57654251    -0.22640
F2284       F  0.42793375  0.80367486  0.53954402    -0.19970
F2285       F  0.44895776  0.84925426  0.53853103    -0.19650
F2286       F  0.53680219  0.75351644  0.63809681    -0.19700
F2287       F  0.55935071  0.79810181  0.63396070    -0.20030
F2288       F  0.56502315  0.76351994  0.59857526    -0.22700
C2289       C  0.48507356  0.89514425  0.70764868    -0.05540
C2290       C  0.51009452  0.88152441  0.69496786     0.00390
C2291       C  0.53506184  0.89889556  0.68726518    -0.08180
C2292       C  0.53322521  0.92991839  0.69053916    -0.05560
C2293       C  0.50747956  0.94378576  0.70127325     0.00380
C2294       C  0.48335228  0.92622900  0.71107951    -0.08090
C2295       C  0.45559131  0.94035175  0.72402764     0.62290
H2296       H  0.46639976  0.88126144  0.71372066     0.12980
H2297       H  0.55182434  0.94359914  0.68435323     0.12990
C2298       C  0.56348099  0.88470794  0.67582100     0.62520
F2299       F  0.43433909  0.91929681  0.73110118    -0.22640
F2300       F  0.44320231  0.95989715  0.70368255    -0.19970
F2301       F  0.46286156  0.95564593  0.74974725    -0.19650
F2302       F  0.55856463  0.87204601  0.64822317    -0.19700
F2303       F  0.57292513  0.86291524  0.69543377    -0.20030
F2304       F  0.58614247  0.90532499  0.67301156    -0.22700
loop_ 
_geom_bond_atom_site_label_1 
_geom_bond_atom_site_label_2 
_geom_bond_distance 
_geom_bond_site_symmetry_2 
_ccdc_geom_bond_type 
C1            C2   1.401       .  A
C1            C6   1.394       .  A
C1         C2290   1.477       .  S
C2            C3   1.418       .  A
C2            H7   1.078       .  S
C3            C4   1.415       .  A
C3           C12   1.508       .  S
C4            C5   1.399       .  A
C4            H8   1.079       .  S
C5            C6   1.394       .  A
C5         C2274   1.477       .  S
C6            H9   1.085       .  S
C10          C11   1.400       .  A
C10          C15   1.397       .  A
C10        C2242   1.481       .  S
C11          C12   1.415       .  A
C11          H16   1.075       .  S
C12          C13   1.417       .  A
C13          C14   1.401       .  A
C13          H17   1.079       .  S
C14          C15   1.396       .  A
C14        C2258   1.483       .  S
C15          H18   1.085       .  S
C19          C20   1.403       .  A
C19          C24   1.401       .  A
C19        C2210   1.486       .  S
C20          C21   1.416       .  A
C20          H25   1.080       .  S
C21          C22   1.414       .  A
C21          C30   1.507       .  S
C22          C23   1.403       .  A
C22          H26   1.080       .  S
C23          C24   1.404       .  A
C23        C2226   1.487       .  S
C24          H27   1.084       .  S
C28          C29   1.406       .  A
C28          C33   1.401       .  A
C28        C2178   1.492       .  S
C29          C30   1.416       .  A
C29          H34   1.080       .  S
C30          C31   1.414       .  A
C31          C32   1.401       .  A
C31          H35   1.079       .  S
C32          C33   1.399       .  A
C32        C2194   1.487       .  S
C33          H36   1.083       .  S
C37          C38   1.399       .  A
C37          C42   1.402       .  A
C37        C2146   1.485       .  S
C38          C39   1.401       .  A
C38          H43   1.084       .  S
C39          C40   1.403       .  A
C39        C2162   1.491       .  S
C40          C41   1.415       .  A
C40          H44   1.075       .  S
C41          C42   1.414       .  A
C41          C50   1.504       .  S
C42          H45   1.081       .  S
C46          C47   1.404       .  A
C46          C51   1.407       .  A
C46        C2114   1.496       .  S
C47          C48   1.401       .  A
C47          H52   1.081       .  S
C48          C49   1.402       .  A
C48        C2130   1.489       .  S
C49          C50   1.412       .  A
C49          H53   1.081       .  S
C50          C51   1.414       .  A
C51          H54   1.080       .  S
C55          C56   1.407       .  A
C55          C60   1.397       .  A
C55        C2098   1.492       .  S
C56          C57   1.420       .  A
C56          H61   1.077       .  S
C57          C58   1.417       .  A
C57          C66   1.518       .  S
C58          C59   1.402       .  A
C58          H62   1.076       .  S
C59          C60   1.397       .  A
C59        C2082   1.486       .  S
C60          H63   1.083       .  S
C64          C65   1.404       .  A
C64          C69   1.396       .  A
C64        C2050   1.490       .  S
C65          C66   1.419       .  A
C65          H70   1.077       .  S
C66          C67   1.418       .  A
C67          C68   1.406       .  A
C67          H71   1.077       .  S
C68          C69   1.399       .  A
C68        C2066   1.491       .  S
C69          H72   1.082       .  S
C73          C74   1.397       .  A
C73          C78   1.396       .  A
C73        C2018   1.484       .  S
C74          C75   1.416       .  A
C74          H79   1.079       .  S
C75          C76   1.415       .  A
C75          C84   1.507       .  S
C76          C77   1.406       .  A
C76          H80   1.076       .  S
C77          C78   1.402       .  A
C77        C2034   1.492       .  S
C78          H81   1.084       .  S
C82          C83   1.407       .  A
C82          C87   1.399       .  A
C82        C1986   1.494       .  S
C83          C84   1.420       .  A
C83          H88   1.075       .  S
C84          C85   1.413       .  A
C85          C86   1.397       .  A
C85          H89   1.078       .  S
C86          C87   1.400       .  A
C86        C2002   1.487       .  S
C87          H90   1.085       .  S
C91          C92   1.402       .  A
C91          C96   1.397   1_455  A
C91        C1970   1.488       .  S
C92          C93   1.414       .  A
C92          H97   1.078       .  S
C93          C94   1.418       .  A
C93         C102   1.507       .  S
C94          C95   1.405       .  A
C94          H98   1.072       .  S
C95          C96   1.399   1_455  A
C95        C1954   1.495       .  S
C96          H99   1.085       .  S
C100        C101   1.402       .  A
C100        C105   1.395   1_655  A
C100       C1925   1.481       .  S
C101        C102   1.417   1_655  A
C101        H106   1.080       .  S
C102        C103   1.415       .  A
C103        C104   1.405       .  A
C103        H107   1.079       .  S
C104        C105   1.399       .  A
C104       C1941   1.487       .  S
C105        H108   1.083       .  S
C109        C110   1.401       .  A
C109        C114   1.407       .  A
C109       C1893   1.491       .  S
C110        C111   1.393       .  A
C110        H115   1.084       .  S
C111        C112   1.396       .  A
C111       C1906   1.477       .  S
C112        C113   1.416       .  A
C112        H116   1.077       .  S
C113        C114   1.417       .  A
C113        C122   1.509       .  S
C114        H117   1.078       .  S
C118        C119   1.398       .  A
C118        C123   1.407       .  A
C118       C1858   1.488       .  S
C119        C120   1.394       .  A
C119        H124   1.084       .  S
C120        C121   1.397       .  A
C120       C1874   1.480       .  S
C121        C122   1.415       .  A
C121        H125   1.077       .  S
C122        C123   1.419       .  A
C123        H126   1.078       .  S
O127       Cu135   2.015       .  S
O127        C137   1.278       .  A
O128       Cu135   2.014   1_565  S
O128        C138   1.279       .  A
O129       Cu135   1.964       .  S
O129        C139   1.268       .  A
O130       Cu135   1.964       .  S
O130        C140   1.269       .  A
O131       Cu136   2.047       .  S
O131        C140   1.284       .  A
O132       Cu136   2.050       .  S
O132        C139   1.283       .  A
O133       Cu136   2.008   1_565  S
O133        C138   1.276       .  A
O134       Cu136   2.013       .  S
O134        C137   1.277       .  A
Cu135      Cu136   2.364       .  S
C137       C1890   1.485       .  S
C138       C2293   1.475       .  S
C139       C1842   1.496       .  S
C140       C2005   1.485       .  S
C141        C142   1.398       .  A
C141        C146   1.395       .  A
C141       C1826   1.480   1_655  S
C142        C143   1.415       .  A
C142        H147   1.077   1_655  S
C143        C144   1.420       .  A
C143        C152   1.510       .  S
C144        C145   1.403       .  A
C144        H148   1.076       .  S
C145        C146   1.395       .  A
C145       C1813   1.485       .  S
C146        H149   1.085       .  S
C150        C151   1.403       .  A
C150        C155   1.399       .  A
C150       C1778   1.485       .  S
C151        C152   1.415       .  A
C151        H156   1.077       .  S
C152        C153   1.418       .  A
C153        C154   1.400       .  A
C153        H157   1.078       .  S
C154        C155   1.395       .  A
C154       C1794   1.478       .  S
C155        H158   1.084       .  S
C159        C160   1.402       .  A
C159        C164   1.397       .  A
C159       C1749   1.490       .  S
C160        C161   1.420       .  A
C160        H165   1.072       .  S
C161        C162   1.419       .  A
C161        C170   1.518       .  S
C162        C163   1.404       .  A
C162        H166   1.077       .  S
C163        C164   1.397       .  A
C163       C1762   1.486       .  S
C164        H167   1.084       .  S
C168        C169   1.411       .  A
C168        C173   1.408       .  A
C168       C1845   1.512       .  S
C169        C170   1.422       .  A
C169        H174   1.071       .  S
C170        C171   1.417       .  A
C171        C172   1.398       .  A
C171        H175   1.076       .  S
C172        C173   1.395       .  A
C172       C1730   1.488       .  S
C173        H176   1.083       .  S
O177       Cu185   2.011   1_655  S
O177        C187   1.277       .  A
O178       Cu185   2.007   1_565  S
O178        C188   1.278       .  A
O179       Cu185   2.016   1_655  S
O179        C189   1.279       .  A
O180       Cu185   2.020       .  S
O180        C190   1.279       .  A
O181       Cu186   1.999       .  S
O181        C190   1.275       .  A
O182       Cu186   1.994   1_655  S
O182        C189   1.274       .  A
O183       Cu186   2.003   1_565  S
O183        C188   1.276       .  A
O184       Cu186   2.006   1_655  S
O184        C187   1.277       .  A
Cu185      Cu186   2.371       .  S
C187       C1810   1.477       .  S
C188       C1973   1.480       .  S
C189       C2037   1.479       .  S
C190       C1746   1.480       .  S
C191        C192   1.402       .  A
C191        C196   1.402       .  A
C191       C1714   1.494       .  S
C192        C193   1.418       .  A
C192        H197   1.072       .  S
C193        C194   1.416       .  A
C193        C204   1.513       .  S
C194        C195   1.402       .  A
C194        H198   1.079       .  S
C195        C196   1.399       .  A
C195       C1701   1.490       .  S
C196        H199   1.083       .  S
C200        C201   1.399       .  A
C200        C205   1.403       .  A
C200       C1669   1.491       .  S
C201        C202   1.398       .  A
C201        H206   1.085       .  S
C202        C203   1.400       .  A
C202       C1682   1.488       .  S
C203        C204   1.416       .  A
C203        H207   1.073       .  S
C204        C205   1.418       .  A
C205        H208   1.076       .  S
O209       Cu217   1.996       .  S
O209        C219   1.275       .  A
O210       Cu217   1.988   1_455  S
O210        C220   1.277       .  A
O211       Cu217   1.997       .  S
O211        C221   1.276       .  A
O212       Cu217   1.997       .  S
O212        C222   1.277       .  A
O213       Cu218   2.021       .  S
O213        C222   1.278       .  A
O214       Cu218   2.018       .  S
O214        C221   1.278       .  A
O215       Cu218   2.022   1_455  S
O215        C220   1.278       .  A
O216       Cu218   2.022       .  S
O216        C219   1.279       .  A
Cu217      Cu218   2.372       .  S
C219       C2165   1.479       .  S
C220       C1698   1.484       .  S
C221       C1797   1.471       .  S
C222       C1938   1.485   1_655  S
O223       Cu231   1.996       .  S
O223        C233   1.277       .  A
O224       Cu231   1.997       .  S
O224        C234   1.276       .  A
O225       Cu231   1.989       .  S
O225        C235   1.276       .  A
O226       Cu231   1.996       .  S
O226        C236   1.275       .  A
O227       Cu232   2.021       .  S
O227        C236   1.279       .  A
O228       Cu232   2.016       .  S
O228        C235   1.278       .  A
O229       Cu232   2.015       .  S
O229        C234   1.278       .  A
O230       Cu232   2.023       .  S
O230        C233   1.279       .  A
Cu231      Cu232   2.372       .  S
C233       C2133   1.484       .  S
C234       C1685   1.479       .  S
C235       C1877   1.472       .  S
C236       C2261   1.478       .  S
C237        C238   1.402       .  A
C237        C242   1.393       .  A
C237       C1637   1.480       .  S
C238        C239   1.421       .  A
C238        H243   1.077       .  S
C239        C240   1.416       .  A
C239        C248   1.513       .  S
C240        C241   1.400       .  A
C240        H244   1.078       .  S
C241        C242   1.393       .  A
C241       C1650   1.473       .  S
C242        H245   1.085       .  S
C246        C247   1.397       .  A
C246        C251   1.395       .  A
C246       C1618   1.475       .  S
C247        C248   1.415       .  A
C247        H252   1.077       .  S
C248        C249   1.422       .  A
C249        C250   1.405       .  A
C249        H253   1.078       .  S
C250        C251   1.395       .  A
C250       C1602   1.483       .  S
C251        H254   1.085       .  S
O255       Cu263   2.015       .  S
O255        C265   1.278       .  A
O256       Cu263   2.024   1_554  S
O256        C266   1.278       .  A
O257       Cu263   2.024       .  S
O257        C267   1.278       .  A
O258       Cu263   2.018       .  S
O258        C268   1.278       .  A
O259       Cu264   1.995       .  S
O259        C268   1.277       .  A
O260       Cu264   2.002       .  S
O260        C267   1.278       .  A
O261       Cu264   2.005   1_554  S
O261        C266   1.277       .  A
O262       Cu264   1.994       .  S
O262        C265   1.275       .  A
Cu263      Cu264   2.371       .  S
C265       C2245   1.473       .  S
C266       C1634   1.477       .  S
C267       C2069   1.492       .  S
C268       C1586   1.481       .  S
C269        C270   1.402       .  A
C269        C274   1.405       .  A
C269       C1557   1.493       .  S
C270        C271   1.397       .  A
C270        H275   1.085       .  S
C271        C272   1.398       .  A
C271       C1570   1.482       .  S
C272        C273   1.414       .  A
C272        H276   1.079       .  S
C273        C274   1.417       .  A
C273        C280   1.507       .  S
C274        H277   1.073       .  S
C278        C279   1.400       .  A
C278        C283   1.398       .  A
C278       C1589   1.485       .  S
C279        C280   1.414       .  A
C279        H284   1.080       .  S
C280        C281   1.415       .  A
C281        C282   1.405       .  A
C281        H285   1.079       .  S
C282        C283   1.401       .  A
C282       C1538   1.487       .  S
C283        H286   1.083       .  S
C287        C288   1.402       .  A
C287        C292   1.398       .  A
C287       C1522   1.483       .  S
C288        C289   1.417       .  A
C288        H293   1.078       .  S
C289        C290   1.417       .  A
C289        C298   1.509       .  S
C290        C291   1.399       .  A
C290        H294   1.078       .  S
C291        C292   1.394       .  A
C291       C1506   1.477       .  S
C292        H295   1.085       .  S
C296        C297   1.400       .  A
C296        C301   1.394       .  A
C296       C1490   1.476       .  S
C297        C298   1.417       .  A
C297        H302   1.078       .  S
C298        C299   1.417       .  A
C299        C300   1.401       .  A
C299        H303   1.079       .  S
C300        C301   1.394       .  A
C300       C1474   1.477       .  S
C301        H304   1.085       .  S
O305       Cu313   2.014       .  S
O305        C315   1.278       .  A
O306       Cu313   2.020   1_554  S
O306        C316   1.278       .  A
O307       Cu313   2.021   1_655  S
O307        C317   1.279       .  A
O308       Cu313   2.028       .  S
O308        C318   1.281       .  A
O309       Cu314   1.994       .  S
O309        C318   1.274       .  A
O310       Cu314   1.993   1_655  S
O310        C317   1.276       .  A
O311       Cu314   2.005   1_554  S
O311        C316   1.277       .  A
O312       Cu314   2.002       .  S
O312        C315   1.276       .  A
Cu313      Cu314   2.371       .  S
C315       C1957   1.480       .  S
C316       C1509   1.473       .  S
C317       C2085   1.482       .  S
C318       C1554   1.486       .  S
C319        C320   1.397       .  A
C319        C324   1.398       .  A
C319       C1458   1.479       .  S
C320        C321   1.411       .  A
C320        H325   1.077       .  S
C321        C322   1.415       .  A
C321        C332   1.501       .  S
C322        C323   1.405       .  A
C322        H326   1.079       .  S
C323        C324   1.400       .  A
C323       C1442   1.490       .  S
C324        H327   1.085       .  S
C328        C329   1.401       .  A
C328        C333   1.402       .  A
C328       C1426   1.486       .  S
C329        C330   1.400       .  A
C329        H334   1.082       .  S
C330        C331   1.403       .  A
C330       C1410   1.488       .  S
C331        C332   1.414       .  A
C331        H335   1.080       .  S
C332        C333   1.411       .  A
C333        H336   1.081       .  S
O337       Cu345   2.032       .  S
O337        C347   1.280       .  A
O338       Cu345   2.023   1_455  S
O338        C348   1.280       .  A
O339       Cu345   2.018       .  S
O339        C349   1.278       .  A
O340       Cu345   2.007       .  S
O340        C350   1.276       .  A
O341       Cu346   2.015       .  S
O341        C350   1.279       .  A
O342       Cu346   2.010       .  S
O342        C349   1.278       .  A
O343       Cu346   2.003   1_455  S
O343        C348   1.276       .  A
O344       Cu346   1.995       .  S
O344        C347   1.276       .  A
Cu345      Cu346   2.374       .  S
C347       C2229   1.478       .  S
C348       C1445   1.482       .  S
C349       C1477   1.477       .  S
C350       C1922   1.477       .  S
O351       Cu359   2.025       .  S
O351        C361   1.279       .  A
O352       Cu359   2.022       .  S
O352        C362   1.279       .  A
O353       Cu359   2.011       .  S
O353        C363   1.277       .  A
O354       Cu359   2.017       .  S
O354        C364   1.277       .  A
O355       Cu360   2.012       .  S
O355        C364   1.278       .  A
O356       Cu360   2.000       .  S
O356        C363   1.276       .  A
O357       Cu360   2.002       .  S
O357        C362   1.276       .  A
O358       Cu360   1.994       .  S
O358        C361   1.276       .  A
Cu359      Cu360   2.373       .  S
C361       C1413   1.485       .  S
C362       C2197   1.480       .  S
C363       C2277   1.472       .  S
C364       C1605   1.477       .  S
C365        C366   1.404       .  A
C365        C370   1.401       .  A
C365       C1378   1.491       .  S
C366        C367   1.415       .  A
C366        H371   1.078       .  S
C367        C368   1.413       .  A
C367        C376   1.504       .  S
C368        C369   1.403       .  A
C368        H372   1.081       .  S
C369        C370   1.400       .  A
C369       C1397   1.487       .  S
C370        H373   1.084       .  S
C374        C375   1.397       .  A
C374        C379   1.393       .  A
C374       C1346   1.476       .  S
C375        C376   1.414       .  A
C375        H380   1.080       .  S
C376        C377   1.417       .  A
C377        C378   1.407       .  A
C377        H381   1.077       .  S
C378        C379   1.401       .  A
C378       C1362   1.494       .  S
C379        H382   1.085       .  S
O383       Cu391   2.022   1_565  S
O383        C393   1.279       .  A
O384       Cu391   2.025       .  S
O384        C394   1.281       .  A
O385       Cu391   2.006       .  S
O385        C395   1.276       .  A
O386       Cu391   2.014       .  S
O386        C396   1.277       .  A
O387       Cu392   2.017       .  S
O387        C396   1.280       .  A
O388       Cu392   2.010       .  S
O388        C395   1.279       .  A
O389       Cu392   1.997       .  S
O389        C394   1.274       .  A
O390       Cu392   1.984   1_565  S
O390        C393   1.274       .  A
Cu391      Cu392   2.371       .  S
C393       C1621   1.467       .  S
C394       C1381   1.487       .  S
C395       C1314   1.477       .  S
C396       C1330   1.492       .  S
O397       Cu405   2.009       .  S
O397        C407   1.277       .  A
O398       Cu405   2.009   1_554  S
O398        C408   1.278       .  A
O399       Cu405   1.977       .  S
O399        C409   1.271       .  A
O400       Cu405   1.976       .  S
O400        C410   1.272       .  A
O401       Cu406   2.024       .  S
O401        C410   1.280       .  A
O402       Cu406   2.034       .  S
O402        C409   1.282       .  A
O403       Cu406   2.006   1_554  S
O403        C408   1.275       .  A
O404       Cu406   2.009       .  S
O404        C407   1.277       .  A
Cu405      Cu406   2.372       .  S
C407       C1861   1.479       .  S
C408       C1349   1.470       .  S
C409       C1282   1.485       .  S
C410       C1298   1.474       .  S
C411        C412   1.403       .  A
C411        C416   1.396       .  A
C411       C1266   1.489       .  S
C412        C413   1.419       .  A
C412        H417   1.078       .  S
C413        C414   1.417       .  A
C413        C422   1.514       .  S
C414        C415   1.402       .  A
C414        H418   1.075       .  S
C415        C416   1.396       .  A
C415       C1250   1.480       .  S
C416        H419   1.083       .  S
C420        C421   1.408       .  A
C420        C425   1.405       .  A
C420       C1218   1.504       .  S
C421        C422   1.420       .  A
C421        H426   1.071       .  S
C422        C423   1.415       .  A
C423        C424   1.397       .  A
C423        H427   1.079       .  S
C424        C425   1.396       .  A
C424       C1234   1.483       .  S
C425        H428   1.084       .  S
O429       Cu437   2.003   1_455  S
O429        C439   1.277       .  A
O430       Cu437   2.007       .  S
O430        C440   1.277       .  A
O431       Cu437   1.990       .  S
O431        C441   1.276       .  A
O432       Cu437   1.989       .  S
O432        C442   1.273   1_655  A
O433       Cu438   2.037       .  S
O433        C442   1.282   1_655  A
O434       Cu438   2.025       .  S
O434        C441   1.279       .  A
O435       Cu438   2.018       .  S
O435        C440   1.278       .  A
O436       Cu438   2.014   1_455  S
O436        C439   1.277       .  A
Cu437      Cu438   2.370       .  S
C439       C1253   1.473       .  S
C440       C1186   1.477       .  S
C441       C1781   1.480       .  S
C442       C1205   1.496       .  S
O443       Cu451   2.025       .  S
O443        C453   1.277       .  A
O444       Cu451   2.010       .  S
O444        C454   1.277       .  A
O445       Cu451   2.038   1_565  S
O445        C455   1.281       .  A
O446       Cu451   2.036       .  S
O446        C456   1.282       .  A
O447       Cu452   1.979       .  S
O447        C456   1.272       .  A
O448       Cu452   1.988   1_565  S
O448        C455   1.275       .  A
O449       Cu452   1.989       .  S
O449        C454   1.276       .  A
O450       Cu452   2.001       .  S
O450        C453   1.279       .  A
Cu451      Cu452   2.367       .  S
C453       C1733   1.491       .  S
C454       C1173   1.472       .  S
C455       C1429   1.486       .  S
C456       C1221   1.492       .  S
C457        C458   1.403       .  A
C457        C462   1.401       .  A
C457       C1154   1.485       .  S
C458        C459   1.410       .  A
C458        H463   1.080       .  S
C459        C460   1.413       .  A
C459        C470   1.497       .  S
C460        C461   1.399       .  A
C460        H464   1.081       .  S
C461        C462   1.398       .  A
C461       C1138   1.486       .  S
C462        H465   1.081       .  S
C466        C467   1.399       .  A
C466        C471   1.395       .  A
C466       C1301   1.482       .  S
C467        C468   1.403       .  A
C467        H472   1.085       .  S
C468        C469   1.405       .  A
C468       C1122   1.496       .  S
C469        C470   1.415       .  A
C469        H473   1.073       .  S
C470        C471   1.408       .  A
C471        H474   1.079       .  S
C475        C476   1.411       .  A
C475        C480   1.409       .  A
C475       C1106   1.515       .  S
C476        C477   1.422       .  A
C476        H481   1.074       .  S
C477        C478   1.411       .  A
C477        C488   1.511       .  S
C478        C479   1.397       .  A
C478        H482   1.077       .  S
C479        C480   1.397       .  A
C479       C1090   1.485       .  S
C480        H483   1.083       .  S
C484        C485   1.398       .  A
C484        C489   1.408       .  A
C484       C1333   1.493       .  S
C485        C486   1.397       .  A
C485        H490   1.082       .  S
C486        C487   1.399       .  A
C486       C1170   1.481       .  S
C487        C488   1.412       .  A
C487        H491   1.079       .  S
C488        C489   1.421       .  A
C489        H492   1.077       .  S
C493        C494   1.405       .  A
C493        C498   1.400       .  A
C493       C1077   1.486       .  S
C494        C495   1.415       .  A
C494        H499   1.079       .  S
C495        C496   1.416   1_655  A
C495        C504   1.509       .  S
C496        C497   1.400       .  A
C496        H500   1.079       .  S
C497        C498   1.396   1_455  A
C497       C1058   1.485       .  S
C498        H501   1.084       .  S
C502        C503   1.410       .  A
C502        C507   1.405       .  A
C502       C1202   1.506       .  S
C503        C504   1.420   1_455  A
C503        H508   1.072   1_455  S
C504        C505   1.414       .  A
C505        C506   1.396   1_655  A
C505        H509   1.079       .  S
C506        C507   1.392       .  A
C506       C1042   1.480       .  S
C507        H510   1.084       .  S
O511       Cu519   2.007       .  S
O511        C521   1.278       .  A
O512       Cu519   2.009   1_465  S
O512        C522   1.277       .  A
O513       Cu519   1.987       .  S
O513        C523   1.275       .  A
O514       Cu519   1.985   1_455  S
O514        C524   1.272       .  A
O515       Cu520   2.045       .  S
O515        C524   1.283       .  A
O516       Cu520   2.037   1_655  S
O516        C523   1.281       .  A
O517       Cu520   2.014   1_565  S
O517        C522   1.277       .  A
O518       Cu520   2.012   1_655  S
O518        C521   1.277       .  A
Cu519      Cu520   2.366   1_655  S
C521       C1074   1.484       .  S
C522       C1525   1.477       .  S
C523       C1029   1.485       .  S
C524       C1109   1.501       .  S
O525       Cu533   2.022       .  S
O525        C535   1.279       .  A
O526       Cu533   2.026   1_565  S
O526        C536   1.279       .  A
O527       Cu533   2.021       .  S
O527        C537   1.278       .  A
O528       Cu533   2.017   1_554  S
O528        C538   1.277       .  A
O529       Cu534   1.990   1_554  S
O529        C538   1.277       .  A
O530       Cu534   1.997       .  S
O530        C537   1.277       .  A
O531       Cu534   1.992   1_565  S
O531        C536   1.275       .  A
O532       Cu534   1.987       .  S
O532        C535   1.276       .  A
Cu533      Cu534   2.370       .  S
C535       C1141   1.481       .  S
C536       C1573   1.477       .  S
C537       C1765   1.481       .  S
C538       C1093   1.483       .  S
O539       Cu547   1.996       .  S
O539        C549   1.275       .  A
O540       Cu547   2.002   1_554  S
O540        C550   1.276       .  A
O541       Cu547   1.994   1_655  S
O541        C551   1.274       .  A
O542       Cu547   1.987       .  S
O542        C552   1.276       .  A
O543       Cu548   2.021       .  S
O543        C552   1.279       .  A
O544       Cu548   2.025   1_655  S
O544        C551   1.280       .  A
O545       Cu548   2.016   1_554  S
O545        C550   1.278       .  A
O546       Cu548   2.013       .  S
O546        C549   1.278       .  A
Cu547      Cu548   2.369       .  S
C549       C1829   1.475       .  S
C550       C1061   1.479       .  S
C551       C1010   1.490       .  S
C552       C1157   1.483       .  S
C553        C554   1.391       .  A
C553        C558   1.394       .  A
C553        C994   1.472       .  S
C554        C555   1.413       .  A
C554        H559   1.077       .  S
C555        C556   1.420       .  A
C555        C564   1.510       .  S
C556        C557   1.411       .  A
C556        H560   1.076       .  S
C557        C558   1.402       .  A
C557        C981   1.500       .  S
C558        H561   1.080       .  S
C562        C563   1.401       .  A
C562        C567   1.398       .  A
C562        C946   1.485       .  S
C563        C564   1.416       .  A
C563        H568   1.072       .  S
C564        C565   1.418       .  A
C565        C566   1.399       .  A
C565        H569   1.075       .  S
C566        C567   1.396       .  A
C566        C962   1.488       .  S
C567        H570   1.085       .  S
O571       Cu579   2.035   1_455  S
O571        C581   1.280       .  A
O572       Cu579   2.034       .  S
O572        C582   1.281       .  A
O573       Cu579   2.008       .  S
O573        C583   1.276   1_655  A
O574       Cu579   2.011       .  S
O574        C584   1.276       .  A
O575       Cu580   2.013       .  S
O575        C584   1.278       .  A
O576       Cu580   2.004       .  S
O576        C583   1.277   1_655  A
O577       Cu580   1.989       .  S
O577        C582   1.276       .  A
O578       Cu580   1.981   1_455  S
O578        C581   1.276       .  A
Cu579      Cu580   2.372       .  S
C581        C978   1.492       .  S
C582        C930   1.485       .  S
C583       C1493   1.469       .  S
C584       C1045   1.473       .  S
O585       Cu593   1.991       .  S
O585        C595   1.276       .  A
O586       Cu593   1.990       .  S
O586        C596   1.274       .  A
O587       Cu593   1.998       .  S
O587        C597   1.275       .  A
O588       Cu593   1.989   1_554  S
O588        C598   1.275       .  A
O589       Cu594   2.011   1_554  S
O589        C598   1.278       .  A
O590       Cu594   2.017       .  S
O590        C597   1.279       .  A
O591       Cu594   2.024       .  S
O591        C596   1.280       .  A
O592       Cu594   2.025       .  S
O592        C595   1.279       .  A
Cu593      Cu594   2.369       .  S
C595       C1541   1.482       .  S
C596       C1125   1.484       .  S
C597       C1666   1.484       .  S
C598        C949   1.476       .  S
O599       Cu607   1.987       .  S
O599        C609   1.274       .  A
O600       Cu607   1.985       .  S
O600        C610   1.274       .  A
O601       Cu607   1.992       .  S
O601        C611   1.277       .  A
O602       Cu607   1.988       .  S
O602        C612   1.275       .  A
O603       Cu608   2.018       .  S
O603        C612   1.278       .  A
O604       Cu608   2.024       .  S
O604        C611   1.279       .  A
O605       Cu608   2.018       .  S
O605        C610   1.278       .  A
O606       Cu608   2.023       .  S
O606        C609   1.279       .  A
Cu607      Cu608   2.374       .  S
C609       C1717   1.479       .  S
C610        C997   1.465       .  S
C611       C1269   1.486       .  S
C612       C1461   1.469       .  S
O613       Cu621   1.991       .  S
O613        C623   1.277       .  A
O614       Cu621   1.996       .  S
O614        C624   1.278       .  A
O615       Cu621   2.002       .  S
O615        C625   1.276       .  A
O616       Cu621   2.006       .  S
O616        C626   1.277       .  A
O617       Cu622   2.023       .  S
O617        C626   1.279       .  A
O618       Cu622   2.021       .  S
O618        C625   1.278       .  A
O619       Cu622   2.021       .  S
O619        C624   1.278       .  A
O620       Cu622   2.022       .  S
O620        C623   1.278       .  A
Cu621      Cu622   2.370       .  S
C623       C1237   1.481       .  S
C624        C914   1.492       .  S
C625       C1909   1.472       .  S
C626       C1394   1.485       .  S
O627       Cu635   2.026       .  S
O627        C637   1.281       .  A
O628       Cu635   2.027       .  S
O628        C638   1.280       .  A
O629       Cu635   2.010       .  S
O629        C639   1.278       .  A
O630       Cu635   2.008       .  S
O630        C640   1.276       .  A
O631       Cu636   1.999       .  S
O631        C640   1.276       .  A
O632       Cu636   2.003       .  S
O632        C639   1.276       .  A
O633       Cu636   1.985       .  S
O633        C638   1.273       .  A
O634       Cu636   1.986       .  S
O634        C637   1.273       .  A
Cu635      Cu636   2.371       .  S
C637        C898   1.483       .  S
C638        C965   1.482       .  S
C639       C1365   1.482       .  S
C640       C1653   1.466       .  S
C641        C642   1.403       .  A
C641        C646   1.402       .  A
C641        C901   1.492       .  S
C642        C643   1.415       .  A
C642        H647   1.077       .  S
C643        C644   1.416       .  A
C643        C652   1.506       .  S
C644        C645   1.402       .  A
C644        H648   1.079       .  S
C645        C646   1.398       .  A
C645        C885   1.488       .  S
C646        H649   1.084       .  S
C650        C651   1.404       .  A
C650        C655   1.403       .  A
C650        C933   1.491       .  S
C651        C652   1.414       .  A
C651        H656   1.079       .  S
C652        C653   1.415       .  A
C653        C654   1.400       .  A
C653        H657   1.080       .  S
C654        C655   1.399       .  A
C654        C866   1.483       .  S
C655        H658   1.083       .  S
O659       Cu667   2.030       .  S
O659        C669   1.279       .  A
O660       Cu667   2.030   1_554  S
O660        C670   1.279       .  A
O661       Cu667   2.019       .  S
O661        C671   1.278       .  A
O662       Cu667   2.014       .  S
O662        C672   1.277       .  A
O663       Cu668   2.006       .  S
O663        C672   1.278       .  A
O664       Cu668   2.014       .  S
O664        C671   1.277       .  A
O665       Cu668   1.998   1_554  S
O665        C670   1.277       .  A
O666       Cu668   1.999       .  S
O666        C669   1.278       .  A
Cu667      Cu668   2.370       .  S
C669       C2117   1.494       .  S
C670        C882   1.484       .  S
C671        C850   1.477       .  S
C672       C2053   1.483       .  S
C673        C674   1.397       .  A
C673        C678   1.397       .  A
C673        C837   1.487       .  S
C674        C675   1.407       .  A
C674        H679   1.084       .  S
C675        C676   1.409       .  A
C675       C1013   1.503       .  S
C676        C677   1.417       .  A
C676        H680   1.074       .  S
C677        C678   1.413       .  A
C677        C686   1.507       .  S
C678        H681   1.077       .  S
C682        C683   1.393       .  A
C682        C687   1.402       .  A
C682        C853   1.478       .  S
C683        C684   1.400       .  A
C683        H688   1.085       .  S
C684        C685   1.402       .  A
C684       C1285   1.489       .  S
C685        C686   1.416       .  A
C685        H689   1.076       .  S
C686        C687   1.416       .  A
C687        H690   1.080       .  S
C691        C692   1.406       .  A
C691        C696   1.405       .  A
C691        C818   1.496       .  S
C692        C693   1.404       .  A
C692        H697   1.081       .  S
C693        C694   1.402       .  A
C693       C1026   1.491       .  S
C694        C695   1.410       .  A
C694        H698   1.082       .  S
C695        C696   1.409       .  A
C695        C702   1.495       .  S
C696        H699   1.082       .  S
C700        C701   1.403       .  A
C700        C705   1.399       .  A
C700        C802   1.484       .  S
C701        C702   1.411       .  A
C701        H706   1.082       .  S
C702        C703   1.413       .  A
C703        C704   1.402       .  A
C703        H707   1.082       .  S
C704        C705   1.397       .  A
C704       C1317   1.481       .  S
C705        H708   1.083       .  S
O709       Cu717   2.024   1_565  S
O709        C719   1.278       .  A
O710       Cu717   2.016       .  S
O710        C720   1.277       .  A
O711       Cu717   2.029       .  S
O711        C721   1.280       .  A
O712       Cu717   2.034   1_554  S
O712        C722   1.280       .  A
O713       Cu718   1.995   1_554  S
O713        C722   1.277       .  A
O714       Cu718   1.990       .  S
O714        C721   1.274       .  A
O715       Cu718   1.995       .  S
O715        C720   1.278       .  A
O716       Cu718   2.010   1_565  S
O716        C719   1.278       .  A
Cu717      Cu718   2.368       .  S
C719       C2101   1.488       .  S
C720        C834   1.481       .  S
C721       C2021   1.477       .  S
C722        C821   1.494       .  S
C723        C724   1.405       .  A
C723        C728   1.400       .  A
C723        C917   1.491       .  S
C724        C725   1.415       .  A
C724        H729   1.078       .  S
C725        C726   1.416       .  A
C725        C736   1.511       .  S
C726        C727   1.401       .  A
C726        H730   1.077       .  S
C727        C728   1.396       .  A
C727        C786   1.487       .  S
C728        H731   1.081       .  S
C732        C733   1.397       .  A
C732        C737   1.398       .  A
C732       C1189   1.483       .  S
C733        C734   1.399       .  A
C733        H738   1.085       .  S
C734        C735   1.403       .  A
C734        C770   1.491       .  S
C735        C736   1.418       .  A
C735        H739   1.073       .  S
C736        C737   1.416       .  A
C737        H740   1.075       .  S
O741       Cu749   2.001   1_565  S
O741        C751   1.277       .  A
O742       Cu749   1.996       .  S
O742        C752   1.277       .  A
O743       Cu749   1.996       .  S
O743        C753   1.277       .  A
O744       Cu749   2.007       .  S
O744        C754   1.277       .  A
O745       Cu750   2.018       .  S
O745        C754   1.279       .  A
O746       Cu750   2.010       .  S
O746        C753   1.277       .  A
O747       Cu750   2.017       .  S
O747        C752   1.278       .  A
O748       Cu750   2.025   1_565  S
O748        C751   1.279       .  A
Cu749      Cu750   2.369       .  S
C751       C2181   1.489       .  S
C752        C789   1.481       .  S
C753        C805   1.481       .  S
C754       C1989   1.485       .  S
O755       Cu763   2.004       .  S
O755        C765   1.278       .  A
O756       Cu763   2.003       .  S
O756        C766   1.276       .  A
O757       Cu763   1.999       .  S
O757        C767   1.276       .  A
O758       Cu763   1.996       .  S
O758        C768   1.275       .  A
O759       Cu764   2.022       .  S
O759        C768   1.280       .  A
O760       Cu764   2.025       .  S
O760        C767   1.279       .  A
O761       Cu764   2.021       .  S
O761        C766   1.278       .  A
O762       Cu764   2.019       .  S
O762        C765   1.278       .  A
Cu763      Cu764   2.373       .  S
C765       C2149   1.484       .  S
C766        C869   1.474       .  S
C767       C2213   1.475       .  S
C768        C773   1.481       .  S
C769        C770   1.405       .  A
C769        C774   1.404       .  A
C769        H776   1.083       .  S
C770        C771   1.422       .  A
C771        C772   1.409       .  A
C771        C778   1.521       .  S
C772        C773   1.403       .  A
C772        H777   1.083       .  S
C773        C774   1.418       .  A
C774        C775   1.521       .  S
C775        F779   1.385       .  S
C775        F780   1.381       .  S
C775        F781   1.383       .  S
C778        F782   1.381       .  S
C778        F783   1.383       .  S
C778        F784   1.385       .  S
C785        C786   1.407       .  A
C785        C790   1.408       .  A
C785        H792   1.083       .  S
C786        C787   1.418       .  A
C787        C788   1.402       .  A
C787        C794   1.519       .  S
C788        C789   1.404       .  A
C788        H793   1.085       .  S
C789        C790   1.417       .  A
C790        C791   1.518       .  S
C791        F795   1.385       .  S
C791        F796   1.383       .  S
C791        F797   1.383       .  S
C794        F798   1.382       .  S
C794        F799   1.383       .  S
C794        F800   1.384       .  S
C801        C802   1.405       .  A
C801        C806   1.408       .  A
C801        H808   1.083       .  S
C802        C803   1.418       .  A
C803        C804   1.400       .  A
C803        C810   1.520       .  S
C804        C805   1.403       .  A
C804        H809   1.085       .  S
C805        C806   1.419       .  A
C806        C807   1.519       .  S
C807        F811   1.385   1_545  S
C807        F812   1.383   1_545  S
C807        F813   1.383       .  S
C810        F814   1.383       .  S
C810        F815   1.382       .  S
C810        F816   1.384       .  S
C817        C818   1.409       .  A
C817        C822   1.411       .  A
C817        H824   1.082       .  S
C818        C819   1.418       .  A
C819        C820   1.403       .  A
C819        C826   1.519       .  S
C820        C821   1.408       .  A
C820        H825   1.085       .  S
C821        C822   1.421       .  A
C822        C823   1.517       .  S
C823        F827   1.385       .  S
C823        F828   1.377   1_545  S
C823        F829   1.383       .  S
C826        F830   1.383       .  S
C826        F831   1.382       .  S
C826        F832   1.384       .  S
C833        C834   1.401       .  A
C833        C838   1.397       .  A
C833        H840   1.085       .  S
C834        C835   1.420       .  A
C835        C836   1.412       .  A
C835        C842   1.518       .  S
C836        C837   1.407       .  A
C836        H841   1.083       .  S
C837        C838   1.420       .  A
C838        C839   1.520   1_556  S
C839        F843   1.384       .  S
C839        F844   1.382       .  S
C839        F845   1.382       .  S
C842        F846   1.383       .  S
C842        F847   1.381       .  S
C842        F848   1.385       .  S
C849        C850   1.399       .  A
C849        C854   1.404       .  A
C849        H856   1.078   1_556  S
C850        C851   1.415       .  A
C851        C852   1.409       .  A
C851        C858   1.514       .  S
C852        C853   1.403       .  A
C852        H857   1.083       .  S
C853        C854   1.416       .  A
C854        C855   1.520   1_556  S
C855        F859   1.385       .  S
C855        F860   1.382       .  S
C855        F861   1.384       .  S
C858        F862   1.379       .  S
C858        F863   1.382       .  S
C858        F864   1.384       .  S
C865        C866   1.403       .  A
C865        C870   1.408       .  A
C865        H872   1.083       .  S
C866        C867   1.419       .  A
C867        C868   1.407       .  A
C867        C874   1.519       .  S
C868        C869   1.400       .  A
C868        H873   1.083       .  S
C869        C870   1.415       .  A
C870        C871   1.517       .  S
C871        F875   1.384       .  S
C871        F876   1.383       .  S
C871        F877   1.382       .  S
C874        F878   1.382       .  S
C874        F879   1.382       .  S
C874        F880   1.385       .  S
C881        C882   1.401       .  A
C881        C886   1.399       .  A
C881        H888   1.085       .  S
C882        C883   1.419       .  A
C883        C884   1.413       .  A
C883        C890   1.514       .  S
C884        C885   1.406       .  A
C884        H889   1.083       .  S
C885        C886   1.420       .  A
C886        C887   1.521       .  S
C887        F891   1.385       .  S
C887        F892   1.382       .  S
C887        F893   1.383       .  S
C890        F894   1.382       .  S
C890        F895   1.378       .  S
C890        F896   1.385       .  S
C897        C898   1.404       .  A
C897        C902   1.410       .  A
C897        H904   1.083       .  S
C898        C899   1.420       .  A
C899        C900   1.402       .  A
C899        C906   1.522       .  S
C900        C901   1.404       .  A
C900        H905   1.082       .  S
C901        C902   1.422       .  A
C902        C903   1.520       .  S
C903        F907   1.385       .  S
C903        F908   1.381       .  S
C903        F909   1.383       .  S
C906        F910   1.382       .  S
C906        F911   1.383       .  S
C906        F912   1.385       .  S
C913        C914   1.407       .  A
C913        C918   1.398       .  A
C913        H920   1.084       .  S
C914        C915   1.423       .  A
C915        C916   1.410       .  A
C915        C922   1.519       .  S
C916        C917   1.408       .  A
C916        H921   1.082       .  S
C917        C918   1.416       .  A
C918        C919   1.520       .  S
C919        F923   1.384       .  S
C919        F924   1.383       .  S
C919        F925   1.383       .  S
C922        F926   1.383       .  S
C922        F927   1.379       .  S
C922        F928   1.385       .  S
C929        C930   1.404       .  A
C929        C934   1.402       .  A
C929        H936   1.084       .  S
C930        C931   1.418       .  A
C931        C932   1.411       .  A
C931        C938   1.518       .  S
C932        C933   1.409       .  A
C932        H937   1.083       .  S
C933        C934   1.418       .  A
C934        C935   1.519       .  S
C935        F939   1.384       .  S
C935        F940   1.383       .  S
C935        F941   1.382       .  S
C938        F942   1.383       .  S
C938        F943   1.383       .  S
C938        F944   1.385       .  S
C945        C946   1.405       .  A
C945        C950   1.399       .  A
C945        H952   1.084       .  S
C946        C947   1.418       .  A
C947        C948   1.410       .  A
C947        C954   1.519       .  S
C948        C949   1.405       .  A
C948        H953   1.083       .  S
C949        C950   1.417       .  A
C950        C951   1.522       .  S
C951        F955   1.385       .  S
C951        F956   1.383       .  S
C951        F957   1.383       .  S
C954        F958   1.383       .  S
C954        F959   1.381       .  S
C954        F960   1.385       .  S
C961        C962   1.403       .  A
C961        C966   1.401       .  A
C961        H968   1.083       .  S
C962        C963   1.420       .  A
C963        C964   1.411       .  A
C963        C970   1.520       .  S
C964        C965   1.406       .  A
C964        H969   1.083       .  S
C965        C966   1.420       .  A
C966        C967   1.522       .  S
C967        F971   1.385       .  S
C967        F972   1.383       .  S
C967        F973   1.383       .  S
C970        F974   1.381       .  S
C970        F975   1.383       .  S
C970        F976   1.385       .  S
C977        C978   1.404       .  A
C977        C982   1.397       .  A
C977        H984   1.083       .  S
C978        C979   1.420       .  A
C979        C980   1.414       .  A
C979        C986   1.518       .  S
C980        C981   1.412       .  A
C980        H985   1.082       .  S
C981        C982   1.421       .  A
C982        C983   1.520       .  S
C983        F987   1.383       .  S
C983        F988   1.379       .  S
C983        F989   1.385       .  S
C986        F990   1.383       .  S
C986        F991   1.383       .  S
C986        F992   1.385       .  S
C993        C994   1.403       .  A
C993        C998   1.406       .  A
C993       H1000   1.083       .  S
C994        C995   1.418       .  A
C995        C996   1.399       .  A
C995       C1002   1.518       .  S
C996        C997   1.398       .  A
C996       H1001   1.086       .  S
C997        C998   1.412       .  A
C998        C999   1.513       .  S
C999       F1003   1.384       .  S
C999       F1004   1.383       .  S
C999       F1005   1.382       .  S
C1002      F1006   1.384       .  S
C1002      F1007   1.381       .  S
C1002      F1008   1.383       .  S
C1009      C1010   1.407       .  A
C1009      C1014   1.414       .  A
C1009      H1016   1.083       .  S
C1010      C1011   1.420       .  A
C1011      C1012   1.402       .  A
C1011      C1018   1.524       .  S
C1012      C1013   1.407       .  A
C1012      H1017   1.080       .  S
C1013      C1014   1.425       .  A
C1014      C1015   1.521       .  S
C1015      F1019   1.385       .  S
C1015      F1020   1.382       .  S
C1015      F1021   1.383       .  S
C1018      F1022   1.383   1_556  S
C1018      F1023   1.384       .  S
C1018      F1024   1.384   1_556  S
C1025      C1026   1.408       .  A
C1025      C1030   1.411       .  A
C1025      H1032   1.083       .  S
C1026      C1027   1.418       .  A
C1027      C1028   1.403       .  A
C1027      C1034   1.518   1_545  S
C1028      C1029   1.405       .  A
C1028      H1033   1.085   1_545  S
C1029      C1030   1.417       .  A
C1030      C1031   1.518       .  S
C1031      F1035   1.385       .  S
C1031      F1036   1.383       .  S
C1031      F1037   1.383       .  S
C1034      F1038   1.383       .  S
C1034      F1039   1.382       .  S
C1034      F1040   1.384       .  S
C1041      C1042   1.401       .  A
C1041      C1046   1.403       .  A
C1041      H1048   1.083       .  S
C1042      C1043   1.419   1_455  A
C1043      C1044   1.409       .  A
C1043      C1050   1.519       .  S
C1044      C1045   1.400       .  A
C1044      H1049   1.083       .  S
C1045      C1046   1.415   1_655  A
C1046      C1047   1.514       .  S
C1047      F1051   1.384       .  S
C1047      F1052   1.380       .  S
C1047      F1053   1.383       .  S
C1050      F1054   1.383       .  S
C1050      F1055   1.382       .  S
C1050      F1056   1.384       .  S
C1057      C1058   1.404       .  A
C1057      C1062   1.407       .  A
C1057      H1064   1.083       .  S
C1058      C1059   1.420   1_455  A
C1059      C1060   1.408       .  A
C1059      C1066   1.521       .  S
C1060      C1061   1.402   1_655  A
C1060      H1065   1.083       .  S
C1061      C1062   1.418       .  A
C1062      C1063   1.519       .  S
C1063      F1067   1.385       .  S
C1063      F1068   1.383       .  S
C1063      F1069   1.382       .  S
C1066      F1070   1.381       .  S
C1066      F1071   1.383       .  S
C1066      F1072   1.385       .  S
C1073      C1074   1.404       .  A
C1073      C1078   1.403       .  A
C1073      H1080   1.085       .  S
C1074      C1075   1.420   1_655  A
C1075      C1076   1.409       .  A
C1075      C1082   1.520       .  S
C1076      C1077   1.405   1_455  A
C1076      H1081   1.083       .  S
C1077      C1078   1.418       .  A
C1078      C1079   1.518       .  S
C1079      F1083   1.384       .  S
C1079      F1084   1.383       .  S
C1079      F1085   1.383       .  S
C1082      F1086   1.384       .  S
C1082      F1087   1.383       .  S
C1082      F1088   1.385       .  S
C1089      C1090   1.405       .  A
C1089      C1094   1.412       .  A
C1089      H1096   1.083       .  S
C1090      C1091   1.420       .  A
C1091      C1092   1.396       .  A
C1091      C1098   1.520   1_545  S
C1092      C1093   1.401       .  A
C1092      H1097   1.084       .  S
C1093      C1094   1.421       .  A
C1094      C1095   1.518       .  S
C1095      F1099   1.385       .  S
C1095      F1100   1.383       .  S
C1095      F1101   1.383       .  S
C1098      F1102   1.382   1_565  S
C1098      F1103   1.381       .  S
C1098      F1104   1.384       .  S
C1105      C1106   1.406       .  A
C1105      C1110   1.399       .  A
C1105      H1112   1.076       .  S
C1106      C1107   1.428       .  A
C1107      C1108   1.418       .  A
C1107      C1114   1.519       .  S
C1108      C1109   1.409       .  A
C1108      H1113   1.083       .  S
C1109      C1110   1.424       .  A
C1110      C1111   1.525       .  S
C1111      F1115   1.385       .  S
C1111      F1116   1.384       .  S
C1111      F1117   1.377       .  S
C1114      F1118   1.383       .  S
C1114      F1119   1.383       .  S
C1114      F1120   1.385       .  S
C1121      C1122   1.407       .  A
C1121      C1126   1.401       .  A
C1121      H1128   1.083       .  S
C1122      C1123   1.423       .  A
C1123      C1124   1.412       .  A
C1123      C1130   1.520   1_556  S
C1124      C1125   1.406       .  A
C1124      H1129   1.083       .  S
C1125      C1126   1.418       .  A
C1126      C1127   1.523       .  S
C1127      F1131   1.385       .  S
C1127      F1132   1.383       .  S
C1127      F1133   1.383       .  S
C1130      F1134   1.383       .  S
C1130      F1135   1.382   1_554  S
C1130      F1136   1.385       .  S
C1137      C1138   1.407       .  A
C1137      C1142   1.409       .  A
C1137      H1144   1.083       .  S
C1138      C1139   1.417       .  A
C1139      C1140   1.400       .  A
C1139      C1146   1.519   1_556  S
C1140      C1141   1.404       .  A
C1140      H1145   1.085   1_556  S
C1141      C1142   1.417       .  A
C1142      C1143   1.518       .  S
C1143      F1147   1.385       .  S
C1143      F1148   1.383       .  S
C1143      F1149   1.383       .  S
C1146      F1150   1.383       .  S
C1146      F1151   1.382       .  S
C1146      F1152   1.384       .  S
C1153      C1154   1.408       .  A
C1153      C1158   1.409       .  A
C1153      H1160   1.083       .  S
C1154      C1155   1.415       .  A
C1155      C1156   1.398       .  A
C1155      C1162   1.519       .  S
C1156      C1157   1.406       .  A
C1156      H1161   1.084       .  S
C1157      C1158   1.419       .  A
C1158      C1159   1.519       .  S
C1159      F1163   1.385       .  S
C1159      F1164   1.383   1_556  S
C1159      F1165   1.383       .  S
C1162      F1166   1.383       .  S
C1162      F1167   1.383       .  S
C1162      F1168   1.384       .  S
C1169      C1170   1.406       .  A
C1169      C1174   1.406       .  A
C1169      H1176   1.083       .  S
C1170      C1171   1.417       .  A
C1171      C1172   1.400       .  A
C1171      C1178   1.519       .  S
C1172      C1173   1.402       .  A
C1172      H1177   1.085       .  S
C1173      C1174   1.415       .  A
C1174      C1175   1.519       .  S
C1175      F1179   1.385   1_545  S
C1175      F1180   1.383       .  S
C1175      F1181   1.383   1_545  S
C1178      F1182   1.382       .  S
C1178      F1183   1.384       .  S
C1178      F1184   1.383       .  S
C1185      C1186   1.403       .  A
C1185      C1190   1.410       .  A
C1185      H1192   1.083       .  S
C1186      C1187   1.414       .  A
C1187      C1188   1.401       .  A
C1187      C1194   1.511       .  S
C1188      C1189   1.402       .  A
C1188      H1193   1.084       .  S
C1189      C1190   1.420       .  A
C1190      C1191   1.520       .  S
C1191      F1195   1.385       .  S
C1191      F1196   1.381       .  S
C1191      F1197   1.383       .  S
C1194      F1198   1.384       .  S
C1194      F1199   1.381       .  S
C1194      F1200   1.385       .  S
C1201      C1202   1.407   1_655  A
C1201      C1206   1.399       .  A
C1201      H1208   1.081       .  S
C1202      C1203   1.425       .  A
C1203      C1204   1.415       .  A
C1203      C1210   1.519       .  S
C1204      C1205   1.409       .  A
C1204      H1209   1.084       .  S
C1205      C1206   1.423   1_455  A
C1206      C1207   1.522       .  S
C1207      F1211   1.385       .  S
C1207      F1212   1.383   1_655  S
C1207      F1213   1.374       .  S
C1210      F1214   1.383       .  S
C1210      F1215   1.383       .  S
C1210      F1216   1.385       .  S
C1217      C1218   1.407       .  A
C1217      C1222   1.401       .  A
C1217      H1224   1.079       .  S
C1218      C1219   1.425       .  A
C1219      C1220   1.413       .  A
C1219      C1226   1.520       .  S
C1220      C1221   1.407       .  A
C1220      H1225   1.084       .  S
C1221      C1222   1.422       .  A
C1222      C1223   1.525       .  S
C1223      F1227   1.384       .  S
C1223      F1228   1.384       .  S
C1223      F1229   1.382       .  S
C1226      F1230   1.383       .  S
C1226      F1231   1.383       .  S
C1226      F1232   1.385       .  S
C1233      C1234   1.405       .  A
C1233      C1238   1.412       .  A
C1233      H1240   1.083       .  S
C1234      C1235   1.419       .  A
C1235      C1236   1.398       .  A
C1235      C1242   1.520       .  S
C1236      C1237   1.401       .  A
C1236      H1241   1.085       .  S
C1237      C1238   1.419       .  A
C1238      C1239   1.517       .  S
C1239      F1243   1.385       .  S
C1239      F1244   1.383       .  S
C1239      F1245   1.383       .  S
C1242      F1246   1.382       .  S
C1242      F1247   1.382       .  S
C1242      F1248   1.384       .  S
C1249      C1250   1.404       .  A
C1249      C1254   1.402       .  A
C1249      H1256   1.083       .  S
C1250      C1251   1.415       .  A
C1251      C1252   1.408       .  A
C1251      C1258   1.518       .  S
C1252      C1253   1.403       .  A
C1252      H1257   1.078       .  S
C1253      C1254   1.413       .  A
C1254      C1255   1.519       .  S
C1255      F1259   1.385       .  S
C1255      F1260   1.382       .  S
C1255      F1261   1.383       .  S
C1258      F1262   1.383       .  S
C1258      F1263   1.381       .  S
C1258      F1264   1.385       .  S
C1265      C1266   1.406       .  A
C1265      C1270   1.411       .  A
C1265      H1272   1.083       .  S
C1266      C1267   1.420       .  A
C1267      C1268   1.401       .  A
C1267      C1274   1.521       .  S
C1268      C1269   1.404       .  A
C1268      H1273   1.084       .  S
C1269      C1270   1.420       .  A
C1270      C1271   1.518       .  S
C1271      F1275   1.385       .  S
C1271      F1276   1.383       .  S
C1271      F1277   1.383       .  S
C1274      F1278   1.383       .  S
C1274      F1279   1.383       .  S
C1274      F1280   1.385       .  S
C1281      C1282   1.404       .  A
C1281      C1286   1.410       .  A
C1281      H1288   1.083       .  S
C1282      C1283   1.423       .  A
C1283      C1284   1.402       .  A
C1283      C1290   1.522   1_556  S
C1284      C1285   1.402       .  A
C1284      H1289   1.083   1_556  S
C1285      C1286   1.422       .  A
C1286      C1287   1.521       .  S
C1287      F1291   1.385       .  S
C1287      F1292   1.381       .  S
C1287      F1293   1.383       .  S
C1290      F1294   1.379       .  S
C1290      F1295   1.383   1_554  S
C1290      F1296   1.385       .  S
C1297      C1298   1.403       .  A
C1297      C1302   1.408       .  A
C1297      H1304   1.083       .  S
C1298      C1299   1.419       .  A
C1299      C1300   1.400       .  A
C1299      C1306   1.522       .  S
C1300      C1301   1.402       .  A
C1300      H1305   1.084       .  S
C1301      C1302   1.420       .  A
C1302      C1303   1.520   1_556  S
C1303      F1307   1.385       .  S
C1303      F1308   1.381   1_554  S
C1303      F1309   1.383       .  S
C1306      F1310   1.383       .  S
C1306      F1311   1.383       .  S
C1306      F1312   1.385       .  S
C1313      C1314   1.402       .  A
C1313      C1318   1.402       .  A
C1313      H1320   1.085   1_545  S
C1314      C1315   1.418       .  A
C1315      C1316   1.408       .  A
C1315      C1322   1.519       .  S
C1316      C1317   1.404       .  A
C1316      H1321   1.083       .  S
C1317      C1318   1.417       .  A
C1318      C1319   1.518   1_545  S
C1319      F1323   1.383       .  S
C1319      F1324   1.383       .  S
C1319      F1325   1.384       .  S
C1322      F1326   1.382       .  S
C1322      F1327   1.382       .  S
C1322      F1328   1.385       .  S
C1329      C1330   1.405       .  A
C1329      C1334   1.403       .  A
C1329      H1336   1.082       .  S
C1330      C1331   1.422       .  A
C1331      C1332   1.412       .  A
C1331      C1338   1.520       .  S
C1332      C1333   1.407       .  A
C1332      H1337   1.083       .  S
C1333      C1334   1.419       .  A
C1334      C1335   1.520   1_545  S
C1335      F1339   1.384       .  S
C1335      F1340   1.382       .  S
C1335      F1341   1.383       .  S
C1338      F1342   1.383       .  S
C1338      F1343   1.384       .  S
C1338      F1344   1.385       .  S
C1345      C1346   1.403       .  A
C1345      C1350   1.409       .  A
C1345      H1352   1.083       .  S
C1346      C1347   1.417       .  A
C1347      C1348   1.401       .  A
C1347      C1354   1.520       .  S
C1348      C1349   1.397       .  A
C1348      H1353   1.080       .  S
C1349      C1350   1.414       .  A
C1350      C1351   1.516       .  S
C1351      F1355   1.384       .  S
C1351      F1356   1.383       .  S
C1351      F1357   1.383       .  S
C1354      F1358   1.383       .  S
C1354      F1359   1.380       .  S
C1354      F1360   1.385       .  S
C1361      C1362   1.407       .  A
C1361      C1366   1.403       .  A
C1361      H1368   1.081       .  S
C1362      C1363   1.422       .  A
C1363      C1364   1.410       .  A
C1363      C1370   1.521       .  S
C1364      C1365   1.405       .  A
C1364      H1369   1.083       .  S
C1365      C1366   1.417       .  A
C1366      C1367   1.521       .  S
C1367      F1371   1.385       .  S
C1367      F1372   1.383       .  S
C1367      F1373   1.383       .  S
C1370      F1374   1.381       .  S
C1370      F1375   1.383       .  S
C1370      F1376   1.385       .  S
C1377      C1378   1.404       .  A
C1377      C1382   1.406       .  A
C1377      H1384   1.083       .  S
C1378      C1379   1.422       .  A
C1379      C1380   1.409       .  A
C1379      C1386   1.521       .  S
C1380      C1381   1.403       .  A
C1380      H1385   1.083       .  S
C1381      C1382   1.422       .  A
C1382      C1383   1.522       .  S
C1383      F1387   1.385       .  S
C1383      F1388   1.382       .  S
C1383      F1389   1.383       .  S
C1386      F1390   1.381       .  S
C1386      F1391   1.383       .  S
C1386      F1392   1.385       .  S
C1393      C1394   1.404       .  A
C1393      C1398   1.405       .  A
C1393      H1400   1.085       .  S
C1394      C1395   1.418       .  A
C1395      C1396   1.408       .  A
C1395      C1402   1.515       .  S
C1396      C1397   1.404       .  A
C1396      H1401   1.083       .  S
C1397      C1398   1.419       .  A
C1398      C1399   1.518       .  S
C1399      F1403   1.384       .  S
C1399      F1404   1.383       .  S
C1399      F1405   1.382       .  S
C1402      F1406   1.381       .  S
C1402      F1407   1.382       .  S
C1402      F1408   1.385       .  S
C1409      C1410   1.408       .  A
C1409      C1414   1.410       .  A
C1409      H1416   1.083       .  S
C1410      C1411   1.417       .  A
C1411      C1412   1.402       .  A
C1411      C1418   1.519       .  S
C1412      C1413   1.405       .  A
C1412      H1417   1.084       .  S
C1413      C1414   1.418       .  A
C1414      C1415   1.518       .  S
C1415      F1419   1.385       .  S
C1415      F1420   1.383       .  S
C1415      F1421   1.384       .  S
C1418      F1422   1.382       .  S
C1418      F1423   1.383       .  S
C1418      F1424   1.384       .  S
C1425      C1426   1.405       .  A
C1425      C1430   1.408       .  A
C1425      H1432   1.083       .  S
C1426      C1427   1.417       .  A
C1427      C1428   1.402       .  A
C1427      C1434   1.518       .  S
C1428      C1429   1.405       .  A
C1428      H1433   1.085       .  S
C1429      C1430   1.417       .  A
C1430      C1431   1.512       .  S
C1431      F1435   1.385       .  S
C1431      F1436   1.383       .  S
C1431      F1437   1.378       .  S
C1434      F1438   1.383       .  S
C1434      F1439   1.383       .  S
C1434      F1440   1.384       .  S
C1441      C1442   1.403       .  A
C1441      C1446   1.403       .  A
C1441      H1448   1.085       .  S
C1442      C1443   1.419       .  A
C1443      C1444   1.410       .  A
C1443      C1450   1.521       .  S
C1444      C1445   1.406       .  A
C1444      H1449   1.083       .  S
C1445      C1446   1.423       .  A
C1446      C1447   1.523       .  S
C1447      F1451   1.383       .  S
C1447      F1452   1.378       .  S
C1447      F1453   1.384       .  S
C1450      F1454   1.383       .  S
C1450      F1455   1.381       .  S
C1450      F1456   1.385       .  S
C1457      C1458   1.403       .  A
C1457      C1462   1.401       .  A
C1457      H1464   1.084       .  S
C1458      C1459   1.418       .  A
C1459      C1460   1.408       .  A
C1459      C1466   1.519       .  S
C1460      C1461   1.402       .  A
C1460      H1465   1.081       .  S
C1461      C1462   1.413       .  A
C1462      C1463   1.520       .  S
C1463      F1467   1.384       .  S
C1463      F1468   1.382       .  S
C1463      F1469   1.382       .  S
C1466      F1470   1.381       .  S
C1466      F1471   1.383       .  S
C1466      F1472   1.385       .  S
C1473      C1474   1.399   1_655  A
C1473      C1478   1.403       .  A
C1473      H1480   1.083       .  S
C1474      C1475   1.417       .  A
C1475      C1476   1.409       .  A
C1475      C1482   1.518       .  S
C1476      C1477   1.402   1_455  A
C1476      H1481   1.083       .  S
C1477      C1478   1.415       .  A
C1478      C1479   1.511       .  S
C1479      F1483   1.385       .  S
C1479      F1484   1.383       .  S
C1479      F1485   1.382       .  S
C1482      F1486   1.382       .  S
C1482      F1487   1.383       .  S
C1482      F1488   1.384       .  S
C1489      C1490   1.403   1_655  A
C1489      C1494   1.406       .  A
C1489      H1496   1.083       .  S
C1490      C1491   1.414       .  A
C1491      C1492   1.405       .  A
C1491      C1498   1.517       .  S
C1492      C1493   1.401       .  A
C1492      H1497   1.084       .  S
C1493      C1494   1.414   1_455  A
C1494      C1495   1.517       .  S
C1495      F1499   1.385       .  S
C1495      F1500   1.382       .  S
C1495      F1501   1.383       .  S
C1498      F1502   1.382       .  S
C1498      F1503   1.383       .  S
C1498      F1504   1.384       .  S
C1505      C1506   1.401   1_655  A
C1505      C1510   1.408       .  A
C1505      H1512   1.083       .  S
C1506      C1507   1.416       .  A
C1507      C1508   1.404       .  A
C1507      C1514   1.519       .  S
C1508      C1509   1.399       .  A
C1508      H1513   1.080       .  S
C1509      C1510   1.415   1_455  A
C1510      C1511   1.514       .  S
C1511      F1515   1.384       .  S
C1511      F1516   1.383       .  S
C1511      F1517   1.379       .  S
C1514      F1518   1.383       .  S
C1514      F1519   1.382       .  S
C1514      F1520   1.385       .  S
C1521      C1522   1.402       .  A
C1521      C1526   1.403       .  A
C1521      H1528   1.083       .  S
C1522      C1523   1.419   1_455  A
C1523      C1524   1.409       .  A
C1523      C1530   1.520       .  S
C1524      C1525   1.403   1_655  A
C1524      H1529   1.083       .  S
C1525      C1526   1.415       .  A
C1526      C1527   1.514       .  S
C1527      F1531   1.385       .  S
C1527      F1532   1.384       .  S
C1527      F1533   1.381       .  S
C1530      F1534   1.381       .  S
C1530      F1535   1.383       .  S
C1530      F1536   1.385       .  S
C1537      C1538   1.407       .  A
C1537      C1542   1.410       .  A
C1537      H1544   1.083       .  S
C1538      C1539   1.418       .  A
C1539      C1540   1.402       .  A
C1539      C1546   1.519   1_556  S
C1540      C1541   1.404       .  A
C1540      H1545   1.085   1_556  S
C1541      C1542   1.417       .  A
C1542      C1543   1.518       .  S
C1543      F1547   1.385       .  S
C1543      F1548   1.383       .  S
C1543      F1549   1.383       .  S
C1546      F1550   1.382       .  S
C1546      F1551   1.384       .  S
C1546      F1552   1.383       .  S
C1553      C1554   1.406       .  A
C1553      C1558   1.412       .  A
C1553      H1560   1.083       .  S
C1554      C1555   1.420       .  A
C1555      C1556   1.402       .  A
C1555      C1562   1.521   1_556  S
C1556      C1557   1.405       .  A
C1556      H1561   1.083       .  S
C1557      C1558   1.421       .  A
C1558      C1559   1.520       .  S
C1559      F1563   1.385       .  S
C1559      F1564   1.381       .  S
C1559      F1565   1.383       .  S
C1562      F1566   1.380       .  S
C1562      F1567   1.383   1_554  S
C1562      F1568   1.385       .  S
C1569      C1570   1.401       .  A
C1569      C1574   1.401       .  A
C1569      H1576   1.084       .  S
C1570      C1571   1.418       .  A
C1571      C1572   1.411       .  A
C1571      C1578   1.518       .  S
C1572      C1573   1.403       .  A
C1572      H1577   1.083       .  S
C1573      C1574   1.418       .  A
C1574      C1575   1.519   1_556  S
C1575      F1579   1.385       .  S
C1575      F1580   1.382   1_554  S
C1575      F1581   1.382       .  S
C1578      F1582   1.383       .  S
C1578      F1583   1.381       .  S
C1578      F1584   1.385       .  S
C1585      C1586   1.404       .  A
C1585      C1590   1.402       .  A
C1585      H1592   1.085       .  S
C1586      C1587   1.418       .  A
C1587      C1588   1.408       .  A
C1587      C1594   1.519       .  S
C1588      C1589   1.406       .  A
C1588      H1593   1.083       .  S
C1589      C1590   1.417       .  A
C1590      C1591   1.519       .  S
C1591      F1595   1.384       .  S
C1591      F1596   1.382       .  S
C1591      F1597   1.383       .  S
C1594      F1598   1.383       .  S
C1594      F1599   1.383   1_556  S
C1594      F1600   1.385   1_556  S
C1601      C1602   1.403       .  A
C1601      C1606   1.409       .  A
C1601      H1608   1.083       .  S
C1602      C1603   1.417       .  A
C1603      C1604   1.407       .  A
C1603      C1610   1.519       .  S
C1604      C1605   1.402       .  A
C1604      H1609   1.084       .  S
C1605      C1606   1.416       .  A
C1606      C1607   1.517       .  S
C1607      F1611   1.385       .  S
C1607      F1612   1.383       .  S
C1607      F1613   1.383       .  S
C1610      F1614   1.383       .  S
C1610      F1615   1.381       .  S
C1610      F1616   1.385       .  S
C1617      C1618   1.401       .  A
C1617      C1622   1.400       .  A
C1617      H1624   1.084       .  S
C1618      C1619   1.415       .  A
C1619      C1620   1.408       .  A
C1619      C1626   1.517       .  S
C1620      C1621   1.402       .  A
C1620      H1625   1.083       .  S
C1621      C1622   1.413       .  A
C1622      C1623   1.516       .  S
C1623      F1627   1.384       .  S
C1623      F1628   1.383       .  S
C1623      F1629   1.381       .  S
C1626      F1630   1.382       .  S
C1626      F1631   1.383       .  S
C1626      F1632   1.385       .  S
C1633      C1634   1.403       .  A
C1633      C1638   1.407       .  A
C1633      H1640   1.083       .  S
C1634      C1635   1.414       .  A
C1635      C1636   1.407       .  A
C1635      C1642   1.513       .  S
C1636      C1637   1.402       .  A
C1636      H1641   1.083       .  S
C1637      C1638   1.415       .  A
C1638      C1639   1.518       .  S
C1639      F1643   1.384       .  S
C1639      F1644   1.383       .  S
C1639      F1645   1.382       .  S
C1642      F1646   1.382       .  S
C1642      F1647   1.384       .  S
C1642      F1648   1.385       .  S
C1649      C1650   1.403       .  A
C1649      C1654   1.404       .  A
C1649      H1656   1.084       .  S
C1650      C1651   1.414       .  A
C1651      C1652   1.405       .  A
C1651      C1658   1.517       .  S
C1652      C1653   1.401       .  A
C1652      H1657   1.083       .  S
C1653      C1654   1.412       .  A
C1654      C1655   1.517       .  S
C1655      F1659   1.384       .  S
C1655      F1660   1.383       .  S
C1655      F1661   1.383       .  S
C1658      F1662   1.382       .  S
C1658      F1663   1.383       .  S
C1658      F1664   1.385       .  S
C1665      C1666   1.406       .  A
C1665      C1670   1.411       .  A
C1665      H1672   1.083       .  S
C1666      C1667   1.419       .  A
C1667      C1668   1.403       .  A
C1667      C1674   1.521       .  S
C1668      C1669   1.406       .  A
C1668      H1673   1.083       .  S
C1669      C1670   1.419       .  A
C1670      C1671   1.520       .  S
C1671      F1675   1.385       .  S
C1671      F1676   1.383       .  S
C1671      F1677   1.381       .  S
C1674      F1678   1.383       .  S
C1674      F1679   1.383       .  S
C1674      F1680   1.385       .  S
C1681      C1682   1.406       .  A
C1681      C1686   1.402       .  A
C1681      H1688   1.083       .  S
C1682      C1683   1.419       .  A
C1683      C1684   1.409       .  A
C1683      C1690   1.520       .  S
C1684      C1685   1.405       .  A
C1684      H1689   1.082       .  S
C1685      C1686   1.416       .  A
C1686      C1687   1.521       .  S
C1687      F1691   1.385       .  S
C1687      F1692   1.383       .  S
C1687      F1693   1.383       .  S
C1690      F1694   1.381       .  S
C1690      F1695   1.383       .  S
C1690      F1696   1.385       .  S
C1697      C1698   1.402       .  A
C1697      C1702   1.398       .  A
C1697      H1704   1.085       .  S
C1698      C1699   1.420       .  A
C1699      C1700   1.412       .  A
C1699      C1706   1.518       .  S
C1700      C1701   1.407       .  A
C1700      H1705   1.083       .  S
C1701      C1702   1.420       .  A
C1702      C1703   1.519       .  S
C1703      F1707   1.385       .  S
C1703      F1708   1.382       .  S
C1703      F1709   1.383       .  S
C1706      F1710   1.383       .  S
C1706      F1711   1.383       .  S
C1706      F1712   1.385       .  S
C1713      C1714   1.405       .  A
C1713      C1718   1.400       .  A
C1713      H1720   1.079       .  S
C1714      C1715   1.422       .  A
C1715      C1716   1.412       .  A
C1715      C1722   1.520       .  S
C1716      C1717   1.405       .  A
C1716      H1721   1.083       .  S
C1717      C1718   1.417       .  A
C1718      C1719   1.523       .  S
C1719      F1723   1.385       .  S
C1719      F1724   1.383       .  S
C1719      F1725   1.383       .  S
C1722      F1726   1.382       .  S
C1722      F1727   1.383       .  S
C1722      F1728   1.385       .  S
C1729      C1730   1.405       .  A
C1729      C1734   1.414       .  A
C1729      H1736   1.083       .  S
C1730      C1731   1.418       .  A
C1731      C1732   1.397       .  A
C1731      C1738   1.519       .  S
C1732      C1733   1.402       .  A
C1732      H1737   1.084       .  S
C1733      C1734   1.423       .  A
C1734      C1735   1.515       .  S
C1735      F1739   1.385       .  S
C1735      F1740   1.376   1_545  S
C1735      F1741   1.383       .  S
C1738      F1742   1.381       .  S
C1738      F1743   1.381       .  S
C1738      F1744   1.384       .  S
C1745      C1746   1.404       .  A
C1745      C1750   1.410       .  A
C1745      H1752   1.083       .  S
C1746      C1747   1.417       .  A
C1747      C1748   1.404       .  A
C1747      C1754   1.520       .  S
C1748      C1749   1.405       .  A
C1748      H1753   1.083       .  S
C1749      C1750   1.421       .  A
C1750      C1751   1.521       .  S
C1751      F1755   1.385   1_545  S
C1751      F1756   1.383   1_545  S
C1751      F1757   1.381       .  S
C1754      F1758   1.383       .  S
C1754      F1759   1.383       .  S
C1754      F1760   1.385       .  S
C1761      C1762   1.406       .  A
C1761      C1766   1.412       .  A
C1761      H1768   1.083       .  S
C1762      C1763   1.419       .  A
C1763      C1764   1.400       .  A
C1763      C1770   1.521       .  S
C1764      C1765   1.402       .  A
C1764      H1769   1.085       .  S
C1765      C1766   1.419       .  A
C1766      C1767   1.517       .  S
C1767      F1771   1.385   1_545  S
C1767      F1772   1.383   1_545  S
C1767      F1773   1.383       .  S
C1770      F1774   1.383       .  S
C1770      F1775   1.383       .  S
C1770      F1776   1.384       .  S
C1777      C1778   1.406   1_455  A
C1777      C1782   1.408       .  A
C1777      H1784   1.083       .  S
C1778      C1779   1.419       .  A
C1779      C1780   1.400       .  A
C1779      C1786   1.520       .  S
C1780      C1781   1.403       .  A
C1780      H1785   1.085       .  S
C1781      C1782   1.417   1_655  A
C1782      C1783   1.515       .  S
C1783      F1787   1.385       .  S
C1783      F1788   1.379       .  S
C1783      F1789   1.383       .  S
C1786      F1790   1.383       .  S
C1786      F1791   1.383       .  S
C1786      F1792   1.384       .  S
C1793      C1794   1.403       .  A
C1793      C1798   1.407       .  A
C1793      H1800   1.083       .  S
C1794      C1795   1.416   1_655  A
C1795      C1796   1.405       .  A
C1795      C1802   1.518       .  S
C1796      C1797   1.401   1_455  A
C1796      H1801   1.084       .  S
C1797      C1798   1.413       .  A
C1798      C1799   1.516       .  S
C1799      F1803   1.384       .  S
C1799      F1804   1.383       .  S
C1799      F1805   1.383       .  S
C1802      F1806   1.382       .  S
C1802      F1807   1.383       .  S
C1802      F1808   1.385       .  S
C1809      C1810   1.402   1_455  A
C1809      C1814   1.408       .  A
C1809      H1816   1.083       .  S
C1810      C1811   1.417       .  A
C1811      C1812   1.406       .  A
C1811      C1818   1.519       .  S
C1812      C1813   1.404       .  A
C1812      H1817   1.083       .  S
C1813      C1814   1.420   1_655  A
C1814      C1815   1.521       .  S
C1815      F1819   1.385       .  S
C1815      F1820   1.383       .  S
C1815      F1821   1.381       .  S
C1818      F1822   1.382       .  S
C1818      F1823   1.383       .  S
C1818      F1824   1.385       .  S
C1825      C1826   1.400       .  A
C1825      C1830   1.401       .  A
C1825      H1832   1.084       .  S
C1826      C1827   1.420   1_455  A
C1827      C1828   1.408       .  A
C1827      C1834   1.520       .  S
C1828      C1829   1.401   1_655  A
C1828      H1833   1.083       .  S
C1829      C1830   1.418       .  A
C1830      C1831   1.516       .  S
C1831      F1835   1.385       .  S
C1831      F1836   1.382       .  S
C1831      F1837   1.380       .  S
C1834      F1838   1.383       .  S
C1834      F1839   1.382       .  S
C1834      F1840   1.384       .  S
C1841      C1842   1.409       .  A
C1841      C1846   1.417       .  A
C1841      H1848   1.084       .  S
C1842      C1843   1.425       .  A
C1843      C1844   1.396       .  A
C1843      C1850   1.529       .  S
C1844      C1845   1.406       .  A
C1844      H1849   1.075       .  S
C1845      C1846   1.427       .  A
C1846      C1847   1.519       .  S
C1847      F1851   1.385   1_545  S
C1847      F1852   1.383   1_545  S
C1847      F1853   1.383       .  S
C1850      F1854   1.384       .  S
C1850      F1855   1.379       .  S
C1850      F1856   1.384       .  S
C1857      C1858   1.406       .  A
C1857      C1862   1.405       .  A
C1857      H1864   1.083       .  S
C1858      C1859   1.419       .  A
C1859      C1860   1.409       .  A
C1859      C1866   1.520       .  S
C1860      C1861   1.405       .  A
C1860      H1865   1.083       .  S
C1861      C1862   1.415       .  A
C1862      C1863   1.520       .  S
C1863      F1867   1.385       .  S
C1863      F1868   1.383       .  S
C1863      F1869   1.383       .  S
C1866      F1870   1.381       .  S
C1866      F1871   1.383       .  S
C1866      F1872   1.385       .  S
C1873      C1874   1.405       .  A
C1873      C1878   1.409       .  A
C1873      H1880   1.083       .  S
C1874      C1875   1.420       .  A
C1875      C1876   1.398       .  A
C1875      C1882   1.521       .  S
C1876      C1877   1.399       .  A
C1876      H1881   1.085       .  S
C1877      C1878   1.416       .  A
C1878      C1879   1.515       .  S
C1879      F1883   1.384       .  S
C1879      F1884   1.383       .  S
C1879      F1885   1.382       .  S
C1882      F1886   1.382       .  S
C1882      F1887   1.383       .  S
C1882      F1888   1.385       .  S
C1889      C1890   1.405       .  A
C1889      C1894   1.410       .  A
C1889      H1896   1.083       .  S
C1890      C1891   1.417       .  A
C1891      C1892   1.404       .  A
C1891      C1898   1.516       .  S
C1892      C1893   1.405       .  A
C1892      H1897   1.083       .  S
C1893      C1894   1.421       .  A
C1894      C1895   1.520       .  S
C1895      F1899   1.385       .  S
C1895      F1900   1.381       .  S
C1895      F1901   1.383       .  S
C1898      F1902   1.383       .  S
C1898      F1903   1.383       .  S
C1898      F1904   1.385       .  S
C1905      C1906   1.400       .  A
C1905      C1910   1.406       .  A
C1905      H1912   1.083       .  S
C1906      C1907   1.417       .  A
C1907      C1908   1.406       .  A
C1907      C1914   1.518       .  S
C1908      C1909   1.399       .  A
C1908      H1913   1.083       .  S
C1909      C1910   1.415       .  A
C1910      C1911   1.513       .  S
C1911      F1915   1.384       .  S
C1911      F1916   1.383       .  S
C1911      F1917   1.379       .  S
C1914      F1918   1.383       .  S
C1914      F1919   1.383       .  S
C1914      F1920   1.384       .  S
C1921      C1922   1.403       .  A
C1921      C1926   1.406       .  A
C1921      H1928   1.083       .  S
C1922      C1923   1.418   1_655  A
C1923      C1924   1.408       .  A
C1923      C1930   1.519       .  S
C1924      C1925   1.403   1_455  A
C1924      H1929   1.083       .  S
C1925      C1926   1.415       .  A
C1926      C1927   1.519       .  S
C1927      F1931   1.385       .  S
C1927      F1932   1.384       .  S
C1927      F1933   1.381       .  S
C1930      F1934   1.382       .  S
C1930      F1935   1.380       .  S
C1930      F1936   1.385       .  S
C1937      C1938   1.405       .  A
C1937      C1942   1.402       .  A
C1937      H1944   1.085       .  S
C1938      C1939   1.419   1_455  A
C1939      C1940   1.410       .  A
C1939      C1946   1.519       .  S
C1940      C1941   1.407   1_655  A
C1940      H1945   1.083       .  S
C1941      C1942   1.418       .  A
C1942      C1943   1.520       .  S
C1943      F1947   1.384       .  S
C1943      F1948   1.382       .  S
C1943      F1949   1.383       .  S
C1946      F1950   1.383       .  S
C1946      F1951   1.382       .  S
C1946      F1952   1.385       .  S
C1953      C1954   1.408       .  A
C1953      C1958   1.402       .  A
C1953      H1960   1.083       .  S
C1954      C1955   1.422   1_455  A
C1955      C1956   1.412       .  A
C1955      C1962   1.520       .  S
C1956      C1957   1.405   1_655  A
C1956      H1961   1.083       .  S
C1957      C1958   1.416       .  A
C1958      C1959   1.522       .  S
C1959      F1963   1.385       .  S
C1959      F1964   1.383       .  S
C1959      F1965   1.383       .  S
C1962      F1966   1.382       .  S
C1962      F1967   1.383       .  S
C1962      F1968   1.385       .  S
C1969      C1970   1.406       .  A
C1969      C1974   1.404       .  A
C1969      H1976   1.083       .  S
C1970      C1971   1.419   1_455  A
C1971      C1972   1.408       .  A
C1971      C1978   1.520       .  S
C1972      C1973   1.405   1_655  A
C1972      H1977   1.083       .  S
C1973      C1974   1.417       .  A
C1974      C1975   1.520       .  S
C1975      F1979   1.385       .  S
C1975      F1980   1.383       .  S
C1975      F1981   1.383       .  S
C1978      F1982   1.383       .  S
C1978      F1983   1.381       .  S
C1978      F1984   1.385       .  S
C1985      C1986   1.407       .  A
C1985      C1990   1.405       .  A
C1985      H1992   1.083       .  S
C1986      C1987   1.419       .  A
C1987      C1988   1.412       .  A
C1987      C1994   1.517       .  S
C1988      C1989   1.406       .  A
C1988      H1993   1.083       .  S
C1989      C1990   1.417       .  A
C1990      C1991   1.521   1_545  S
C1991      F1995   1.385       .  S
C1991      F1996   1.383       .  S
C1991      F1997   1.383   1_565  S
C1994      F1998   1.378       .  S
C1994      F1999   1.383       .  S
C1994      F2000   1.385       .  S
C2001      C2002   1.400       .  A
C2001      C2006   1.397       .  A
C2001      H2008   1.083       .  S
C2002      C2003   1.420       .  A
C2003      C2004   1.412       .  A
C2003      C2010   1.519       .  S
C2004      C2005   1.405       .  A
C2004      H2009   1.083       .  S
C2005      C2006   1.425       .  A
C2006      C2007   1.523       .  S
C2007      F2011   1.385   1_545  S
C2007      F2012   1.383       .  S
C2007      F2013   1.377   1_545  S
C2010      F2014   1.383       .  S
C2010      F2015   1.381       .  S
C2010      F2016   1.385       .  S
C2017      C2018   1.402       .  A
C2017      C2022   1.405       .  A
C2017      H2024   1.083       .  S
C2018      C2019   1.419       .  A
C2019      C2020   1.408       .  A
C2019      C2026   1.520   1_545  S
C2020      C2021   1.402       .  A
C2020      H2025   1.083       .  S
C2021      C2022   1.419       .  A
C2022      C2023   1.520       .  S
C2023      F2027   1.385       .  S
C2023      F2028   1.382       .  S
C2023      F2029   1.380       .  S
C2026      F2030   1.383       .  S
C2026      F2031   1.381       .  S
C2026      F2032   1.385       .  S
C2033      C2034   1.406       .  A
C2033      C2038   1.406       .  A
C2033      H2040   1.083   1_545  S
C2034      C2035   1.423       .  A
C2035      C2036   1.406       .  A
C2035      C2042   1.519       .  S
C2036      C2037   1.400       .  A
C2036      H2041   1.083       .  S
C2037      C2038   1.418       .  A
C2038      C2039   1.520   1_545  S
C2039      F2043   1.385       .  S
C2039      F2044   1.383   1_565  S
C2039      F2045   1.383       .  S
C2042      F2046   1.383       .  S
C2042      F2047   1.379       .  S
C2042      F2048   1.385       .  S
C2049      C2050   1.406       .  A
C2049      C2054   1.409       .  A
C2049      H2056   1.083       .  S
C2050      C2051   1.419       .  A
C2051      C2052   1.404       .  A
C2051      C2058   1.518   1_556  S
C2052      C2053   1.404       .  A
C2052      H2057   1.085   1_556  S
C2053      C2054   1.419       .  A
C2054      C2055   1.519       .  S
C2055      F2059   1.385       .  S
C2055      F2060   1.384       .  S
C2055      F2061   1.383       .  S
C2058      F2062   1.383       .  S
C2058      F2063   1.382       .  S
C2058      F2064   1.384       .  S
C2065      C2066   1.406       .  A
C2065      C2070   1.410       .  A
C2065      H2072   1.082       .  S
C2066      C2067   1.417       .  A
C2067      C2068   1.401       .  A
C2067      C2074   1.519       .  S
C2068      C2069   1.407       .  A
C2068      H2073   1.084       .  S
C2069      C2070   1.422       .  A
C2070      C2071   1.517       .  S
C2071      F2075   1.385       .  S
C2071      F2076   1.378   1_556  S
C2071      F2077   1.383       .  S
C2074      F2078   1.383       .  S
C2074      F2079   1.383       .  S
C2074      F2080   1.384       .  S
C2081      C2082   1.406       .  A
C2081      C2086   1.410       .  A
C2081      H2088   1.083       .  S
C2082      C2083   1.418       .  A
C2083      C2084   1.399       .  A
C2083      C2090   1.520   1_556  S
C2084      C2085   1.403       .  A
C2084      H2089   1.083   1_556  S
C2085      C2086   1.419       .  A
C2086      C2087   1.518       .  S
C2087      F2091   1.385       .  S
C2087      F2092   1.383       .  S
C2087      F2093   1.383       .  S
C2090      F2094   1.382       .  S
C2090      F2095   1.383       .  S
C2090      F2096   1.384       .  S
C2097      C2098   1.405       .  A
C2097      C2102   1.409       .  A
C2097      H2104   1.082       .  S
C2098      C2099   1.421       .  A
C2099      C2100   1.405       .  A
C2099      C2106   1.519       .  S
C2100      C2101   1.403       .  A
C2100      H2105   1.085       .  S
C2101      C2102   1.419       .  A
C2102      C2103   1.514       .  S
C2103      F2107   1.385   1_556  S
C2103      F2108   1.383       .  S
C2103      F2109   1.379   1_556  S
C2106      F2110   1.382       .  S
C2106      F2111   1.383       .  S
C2106      F2112   1.384       .  S
C2113      C2114   1.408       .  A
C2113      C2118   1.411       .  A
C2113      H2120   1.082       .  S
C2114      C2115   1.419       .  A
C2115      C2116   1.403       .  A
C2115      C2122   1.519       .  S
C2116      C2117   1.407       .  A
C2116      H2121   1.085       .  S
C2117      C2118   1.422       .  A
C2118      C2119   1.519       .  S
C2119      F2123   1.385       .  S
C2119      F2124   1.380       .  S
C2119      F2125   1.383       .  S
C2122      F2126   1.383       .  S
C2122      F2127   1.383       .  S
C2122      F2128   1.384       .  S
C2129      C2130   1.408       .  A
C2129      C2134   1.410       .  A
C2129      H2136   1.083       .  S
C2130      C2131   1.417       .  A
C2131      C2132   1.402       .  A
C2131      C2138   1.518       .  S
C2132      C2133   1.405       .  A
C2132      H2137   1.085       .  S
C2133      C2134   1.419       .  A
C2134      C2135   1.519       .  S
C2135      F2139   1.385       .  S
C2135      F2140   1.382       .  S
C2135      F2141   1.383       .  S
C2138      F2142   1.383       .  S
C2138      F2143   1.382       .  S
C2138      F2144   1.384       .  S
C2145      C2146   1.405       .  A
C2145      C2150   1.412       .  A
C2145      H2152   1.083       .  S
C2146      C2147   1.418       .  A
C2147      C2148   1.401       .  A
C2147      C2154   1.520       .  S
C2148      C2149   1.403       .  A
C2148      H2153   1.085       .  S
C2149      C2150   1.421       .  A
C2150      C2151   1.519       .  S
C2151      F2155   1.385       .  S
C2151      F2156   1.382       .  S
C2151      F2157   1.382       .  S
C2154      F2158   1.383       .  S
C2154      F2159   1.382       .  S
C2154      F2160   1.384       .  S
C2161      C2162   1.406       .  A
C2161      C2166   1.402       .  A
C2161      H2168   1.083       .  S
C2162      C2163   1.421       .  A
C2163      C2164   1.411       .  A
C2163      C2170   1.520       .  S
C2164      C2165   1.404       .  A
C2164      H2169   1.083       .  S
C2165      C2166   1.416       .  A
C2166      C2167   1.521       .  S
C2167      F2171   1.385       .  S
C2167      F2172   1.382       .  S
C2167      F2173   1.382       .  S
C2170      F2174   1.383       .  S
C2170      F2175   1.381       .  S
C2170      F2176   1.385       .  S
C2177      C2178   1.407       .  A
C2177      C2182   1.412       .  A
C2177      H2184   1.083       .  S
C2178      C2179   1.419       .  A
C2179      C2180   1.403       .  A
C2179      C2186   1.520       .  S
C2180      C2181   1.405       .  A
C2180      H2185   1.085       .  S
C2181      C2182   1.420       .  A
C2182      C2183   1.518       .  S
C2183      F2187   1.385       .  S
C2183      F2188   1.383       .  S
C2183      F2189   1.383       .  S
C2186      F2190   1.383       .  S
C2186      F2191   1.382       .  S
C2186      F2192   1.384       .  S
C2193      C2194   1.403       .  A
C2193      C2198   1.406       .  A
C2193      H2200   1.083       .  S
C2194      C2195   1.422       .  A
C2195      C2196   1.408       .  A
C2195      C2202   1.521       .  S
C2196      C2197   1.401       .  A
C2196      H2201   1.083       .  S
C2197      C2198   1.418       .  A
C2198      C2199   1.519       .  S
C2199      F2203   1.385       .  S
C2199      F2204   1.381       .  S
C2199      F2205   1.382       .  S
C2202      F2206   1.381       .  S
C2202      F2207   1.383       .  S
C2202      F2208   1.385       .  S
C2209      C2210   1.405       .  A
C2209      C2214   1.410       .  A
C2209      H2216   1.083       .  S
C2210      C2211   1.417       .  A
C2211      C2212   1.405       .  A
C2211      C2218   1.514       .  S
C2212      C2213   1.400       .  A
C2212      H2217   1.084       .  S
C2213      C2214   1.414       .  A
C2214      C2215   1.516       .  S
C2215      F2219   1.384       .  S
C2215      F2220   1.382       .  S
C2215      F2221   1.383       .  S
C2218      F2222   1.377       .  S
C2218      F2223   1.383       .  S
C2218      F2224   1.385       .  S
C2225      C2226   1.409       .  A
C2225      C2230   1.414       .  A
C2225      H2232   1.083       .  S
C2226      C2227   1.417       .  A
C2227      C2228   1.397       .  A
C2227      C2234   1.517       .  S
C2228      C2229   1.397       .  A
C2228      H2233   1.078       .  S
C2229      C2230   1.415       .  A
C2230      C2231   1.515       .  S
C2231      F2235   1.384       .  S
C2231      F2236   1.383       .  S
C2231      F2237   1.382       .  S
C2234      F2238   1.384       .  S
C2234      F2239   1.381       .  S
C2234      F2240   1.382       .  S
C2241      C2242   1.403       .  A
C2241      C2246   1.401       .  A
C2241      H2248   1.084       .  S
C2242      C2243   1.417       .  A
C2243      C2244   1.409       .  A
C2243      C2250   1.519       .  S
C2244      C2245   1.403       .  A
C2244      H2249   1.083       .  S
C2245      C2246   1.415       .  A
C2246      C2247   1.519       .  S
C2247      F2251   1.385       .  S
C2247      F2252   1.382       .  S
C2247      F2253   1.382       .  S
C2250      F2254   1.383       .  S
C2250      F2255   1.381       .  S
C2250      F2256   1.385       .  S
C2257      C2258   1.403       .  A
C2257      C2262   1.404       .  A
C2257      H2264   1.084       .  S
C2258      C2259   1.417       .  A
C2259      C2260   1.409       .  A
C2259      C2266   1.519       .  S
C2260      C2261   1.404       .  A
C2260      H2265   1.083       .  S
C2261      C2262   1.418       .  A
C2262      C2263   1.520       .  S
C2263      F2267   1.385       .  S
C2263      F2268   1.381       .  S
C2263      F2269   1.382       .  S
C2266      F2270   1.381       .  S
C2266      F2271   1.383       .  S
C2266      F2272   1.385       .  S
C2273      C2274   1.401       .  A
C2273      C2278   1.403       .  A
C2273      H2280   1.083       .  S
C2274      C2275   1.417       .  A
C2275      C2276   1.406       .  A
C2275      C2282   1.519       .  S
C2276      C2277   1.401       .  A
C2276      H2281   1.083       .  S
C2277      C2278   1.415       .  A
C2278      C2279   1.517       .  S
C2279      F2283   1.385       .  S
C2279      F2284   1.383       .  S
C2279      F2285   1.382       .  S
C2282      F2286   1.382       .  S
C2282      F2287   1.383       .  S
C2282      F2288   1.385       .  S
C2289      C2290   1.403       .  A
C2289      C2294   1.407       .  A
C2289      H2296   1.083       .  S
C2290      C2291   1.413       .  A
C2291      C2292   1.404       .  A
C2291      C2298   1.519       .  S
C2292      C2293   1.401       .  A
C2292      H2297   1.077       .  S
C2293      C2294   1.415       .  A
C2294      C2295   1.518       .  S
C2295      F2299   1.384       .  S
C2295      F2300   1.383       .  S
C2295      F2301   1.383       .  S
C2298      F2302   1.382       .  S
C2298      F2303   1.383       .  S
C2298      F2304   1.385       .  S
