geometry optimzed in LAMMPS
_audit_creation_date              2020-12-01 
_audit_creation_method            'lammps2cif' 
_symmetry_space_group_name_H-M    'P1' 
_symmetry_Int_Tables_number       1 
_symmetry_cell_setting            triclinic 
loop_ 
_symmetry_equiv_pos_as_xyz 
  x,y,z 
_cell_length_a                    31.44418278 
_cell_length_b                    31.68661456769407 
_cell_length_c                    24.25115616257792 
_cell_angle_alpha                 84.70205915267873 
_cell_angle_beta                  92.40698567199807 
_cell_angle_gamma                 84.5972042972745 
loop_ 
_atom_site_label 
_atom_site_type_symbol 
_atom_site_fract_x 
_atom_site_fract_y 
_atom_site_fract_z 
_atom_site_charge 
O1          O  0.98318835  0.04851666  0.76708750    -0.72500
O2          O  0.04393460  0.11356475  0.86572356    -0.72600
O3          O  0.98355756  0.13914030  0.78548698    -0.72600
O4          O  0.04095025  0.03389894  0.84586829    -0.72700
O5          O  0.08930754  0.05009027  0.78586956    -0.72600
O6          O  0.01693748  0.13988243  0.70698751    -0.72600
O7          O  0.07620016  0.13563796  0.79088252    -0.72600
O8          O  0.03117440  0.04964288  0.70376790    -0.72600
Ni9        Ni  0.00977769  0.08424035  0.81770626     1.25400
Ni10       Ni  0.05534299  0.09445120  0.74423838     1.25400
C11         C  0.99954386  0.03193736  0.72468455     0.89600
C12         C  0.07415443  0.13207719  0.84398991     0.89600
C13         C  0.98871271  0.15667194  0.73668089     0.89600
C14         C  0.07641359  0.02552268  0.82467017     0.89800
O15         O  0.20595481  0.05470000  0.68544494    -0.72500
O16         O  0.14797606  0.11228669  0.79232862    -0.72600
O17         O  0.19406715  0.13425579  0.71264992    -0.72600
O18         O  0.15824434  0.02355646  0.76795481    -0.72700
O19         O  0.19618668  0.02238679  0.84627667    -0.72600
O20         O  0.25149940  0.11255191  0.76673405    -0.72600
O21         O  0.20339933  0.11000383  0.85108445    -0.72600
O22         O  0.24674452  0.02746488  0.75883337    -0.72600
Ni23       Ni  0.17320495  0.08099286  0.73768280     1.25400
Ni24       Ni  0.22703625  0.06692569  0.80817834     1.25400
C25         C  0.24004320  0.03432745  0.70650478     0.89600
C26         C  0.16738134  0.12816052  0.83200428     0.89600
C27         C  0.23079468  0.14114820  0.73230059     0.89600
C28         C  0.16846116  0.00536109  0.81749422     0.89800
N29         N  0.29026121  0.19028468  0.71408549    -0.01600
C30         C  0.29313947  0.23404099  0.70439494     0.01000
C31         C  0.25139365  0.25278500  0.70822678    -0.21900
C32         C  0.22373258  0.22163941  0.71488193    -0.22100
C33         C  0.24826596  0.18343780  0.71862532     0.00900
H34         H  0.24002668  0.28556694  0.69851965     0.14700
H35         H  0.18932754  0.22664793  0.71701432     0.14700
N36         N  0.97669434  0.33215539  0.69737634    -0.01600
C37         C  0.32196216  0.30700674  0.65519668     0.01000
C38         C  0.30826713  0.32982665  0.60477943    -0.21900
C39         C  0.27670102  0.35973016  0.61700427    -0.22100
C40         C  0.27427255  0.35308257  0.67313106     0.00900
H41         H  0.31223644  0.31956525  0.56387530     0.14700
H42         H  0.25507383  0.38033831  0.58899098     0.14700
N43         N  0.14489443  0.16207728  0.85914256    -0.01600
C44         C  0.16370273  0.18150155  0.90164678     0.01000
C45         C  0.14964586  0.16104304  0.95003207    -0.21900
C46         C  0.11573244  0.13865819  0.93595056    -0.22100
C47         C  0.10948667  0.14635649  0.87957997     0.00900
H48         H  0.15642674  0.16898348  0.99125750     0.14700
H49         H  0.09592052  0.12167854  0.96358497     0.14700
N50         N  0.14148505  0.30637801  0.84282835    -0.01600
C51         C  0.14501161  0.26125597  0.85017448     0.01000
C52         C  0.10415480  0.24926384  0.83870213    -0.21900
C53         C  0.07555764  0.28348018  0.83659799    -0.22100
C54         C  0.09854262  0.31721047  0.83848053     0.00900
H55         H  0.09250522  0.21897285  0.84042961     0.14700
H56         H  0.04107576  0.28389796  0.83229321     0.14700
C57         C  0.32071089  0.25545000  0.65807785    -0.00600
O58         O  0.11409873  0.05242288  0.52448419    -0.72500
O59         O  0.21151752  0.31129093  0.59811832    -0.72600
O60         O  0.20635180  0.03983716  0.51767335    -0.72600
O61         O  0.12804333  0.32740681  0.61195428    -0.72700
O62         O  0.12433514  0.27994376  0.55117629    -0.72600
O63         O  0.18786241  0.34232719  0.44365520    -0.72600
O64         O  0.20913461  0.28041779  0.52048821    -0.72600
O65         O  0.10018863  0.34013487  0.46530508    -0.72600
Ni66       Ni  0.16532170  0.35220971  0.56445943     1.25400
Ni67       Ni  0.15475980  0.30857228  0.49286440     1.25400
C68         C  0.08783894  0.04071377  0.48682548     0.89600
C69         C  0.22634512  0.28233723  0.56861443     0.89600
C70         C  0.21128875  0.03366634  0.46762730     0.89600
C71         C  0.11557009  0.29308379  0.59859543     0.89800
O72         O  0.08176509  0.16384378  0.46665443    -0.72500
O73         O  0.17517618  0.21598863  0.52691698    -0.72600
O74         O  0.16527876  0.16328874  0.44955594    -0.72600
O75         O  0.08518835  0.22025345  0.53895105    -0.72700
O76         O  0.10470314  0.17695941  0.61469958    -0.72600
O77         O  0.17298925  0.11017797  0.51587213    -0.72600
O78         O  0.18929802  0.16237104  0.59244225    -0.72600
O79         O  0.08870900  0.12139593  0.54562574    -0.72600
Ni80       Ni  0.12634910  0.19343193  0.49350780     1.25400
Ni81       Ni  0.13924034  0.14050766  0.56961002     1.25400
C82         C  0.07124781  0.13254834  0.49811410     0.89600
C83         C  0.19990454  0.19577171  0.56636388     0.89600
C84         C  0.18167136  0.12597166  0.46681197     0.89600
C85         C  0.08229171  0.21027379  0.59073561     0.89800
N86         N  0.04586236  0.06693495  0.46870343    -0.01600
C87         C  0.00368327  0.05582599  0.46229198     0.01000
C88         C  0.97802988  0.08331208  0.49116705    -0.21900
C89         C  0.99845391  0.11834183  0.49530607    -0.22100
C90         C  0.03888774  0.10773450  0.48156526     0.00900
H91         H  0.27979177  0.08100045  0.50496342     0.14700
H92         H  0.98641245  0.14800620  0.50927521     0.14700
N93         N  0.23424169  0.06402742  0.43769606    -0.01600
C94         C  0.26349431  0.05866478  0.39683252     0.01000
C95         C  0.24930440  0.09133087  0.35586972    -0.21900
C96         C  0.21930570  0.11952933  0.37676876    -0.22100
C97         C  0.21149311  0.10294101  0.42831839     0.00900
H98         H  0.26469889  0.09880667  0.31832543     0.14700
H99         H  0.20679866  0.15069341  0.35891641     0.14700
N100        N  0.06217514  0.24260400  0.62236155    -0.01600
C101        C  0.03557667  0.23733398  0.66550259     0.01000
C102        C  0.05576669  0.25040574  0.71200096    -0.21900
C103        C  0.08811385  0.27383840  0.69380810    -0.22100
C104        C  0.08977817  0.26952995  0.63798000     0.00900
H105        H  0.04097196  0.25298534  0.75088989     0.14700
H106        H  0.10601369  0.96076534  0.71759150     0.14700
N107        N  0.25515834  0.24569821  0.59066391    -0.01600
C108        C  0.29893787  0.23987675  0.60480542     0.01000
C109        C  0.31246351  0.19771236  0.59580942    -0.21900
C110        C  0.27752843  0.17711906  0.58445246    -0.22100
C111        C  0.24349393  0.20708753  0.57952309     0.00900
H112        H  0.34299844  0.18020816  0.60761677     0.14700
H113        H  0.27673906  0.14324474  0.58209230     0.14700
O114        O  0.28401651  0.17355849  0.35673671    -0.72500
O115        O  0.21875710  0.27389095  0.27345190    -0.72600
O116        O  0.22466834  0.18407261  0.27290911    -0.72600
O117        O  0.27973858  0.26324083  0.35443692    -0.72700
O118        O  0.31536946  0.27385519  0.27852778    -0.72600
O119        O  0.27293829  0.18303455  0.20939705    -0.72600
O120        O  0.25750587  0.26955164  0.19956227    -0.72600
O121        O  0.32950278  0.18035103  0.29160341    -0.72600
Ni122      Ni  0.24955356  0.22385153  0.31655743     1.25400
Ni123      Ni  0.29628846  0.22713574  0.24318688     1.25400
C124        C  0.31777340  0.15791310  0.33502009     0.89600
C125        C  0.22474886  0.28605118  0.22236998     0.89600
C126        C  0.24149793  0.16758833  0.23173455     0.89600
C127        C  0.30701459  0.28291328  0.32713668     0.89800
O128        O  0.10708808  0.16479504  0.35619952    -0.72500
O129        O  0.15936191  0.23697970  0.25185192    -0.72600
O130        O  0.10776329  0.24770098  0.33811623    -0.72600
O131        O  0.16064466  0.14953869  0.27848338    -0.72700
O132        O  0.12215240  0.16069578  0.19987715    -0.72600
O133        O  0.05244013  0.24149588  0.28159926    -0.72600
O134        O  0.10341730  0.24573307  0.19252295    -0.72600
O135        O  0.40083946  0.15612952  0.28115298    -0.72600
Ni136      Ni  0.13652220  0.20011880  0.30794485     1.25400
Ni137      Ni  0.08363058  0.20111274  0.23640812     1.25400
C138        C  0.07679909  0.14863473  0.33239463     0.89600
C139        C  0.14052997  0.25406674  0.20624886     0.89600
C140        C  0.06816904  0.25692211  0.32497586     0.89600
C141        C  0.15418726  0.14061265  0.22909139     0.89800
N142        N  0.33630001  0.30698712  0.35431739    -0.01600
C143        C  0.32699772  0.99393318  0.40155487     0.01000
C144        C  0.02028951  0.97108682  0.44406235    -0.21900
C145        C  0.05120071  0.27899673  0.42058180    -0.22100
C146        C  0.04151630  0.28261435  0.36463419     0.00900
H147        H  0.02208849  0.97687447  0.48727045     0.14700
H148        H  0.07848501  0.26034947  0.44208192     0.14700
N149        N  0.18906300  0.11531276  0.20608497    -0.01600
C150        C  0.19428980  0.07224316  0.19779076     0.01000
C151        C  0.23763603  0.05815573  0.20958064    -0.21900
C152        C  0.25941207  0.09248912  0.21610126    -0.22100
C153        C  0.22934129  0.12661283  0.21505333     0.00900
H154        H  0.25406623  0.02763687  0.20357206     0.14700
H155        H  0.29368463  0.09225900  0.22315905     0.14700
N156        N  0.34477792  0.11752825  0.36009675    -0.01600
C157        C  0.33816780  0.07386409  0.35885152     0.01000
C158        C  0.04208593  0.05318320  0.34153600    -0.21900
C159        C  0.07413384  0.07697794  0.34954226    -0.22100
C160        C  0.05524879  0.11594865  0.35870794     0.00900
H161        H  0.04753841  0.02342580  0.32466917     0.14700
H162        H  0.10674928  0.06932406  0.33806827     0.14700
N163        N  0.18948959  0.30989486  0.18821441    -0.01600
C164        C  0.19262141  0.00627398  0.14360692     0.01000
C165        C  0.17796506  0.98988769  0.09608463    -0.21900
C166        C  0.15510292  0.28997606  0.11296842    -0.22100
C167        C  0.16149892  0.28411846  0.16966375     0.00900
H168        H  0.17462011  0.00712634  0.05549880     0.14700
H169        H  0.13432077  0.27361116  0.08736564     0.14700
C170        C  0.31519536  0.04494275  0.40474886    -0.00600
O171        O  0.30460342  0.13378523  0.03280279    -0.72500
O172        O  0.05395398  0.19854174  0.95657117    -0.70200
O173        O  0.05767192  0.13732586  0.04357140    -0.72600
O174        O  0.29874272  0.19200130  0.94938381    -0.72700
O175        O  0.30239472  0.23980754  0.00906171    -0.72600
O176        O  0.03802662  0.16978152  0.11658051    -0.72600
O177        O  0.06053715  0.22703899  0.03520571    -0.72600
O178        O  0.28856713  0.18412468  0.08766859    -0.72600
Ni179      Ni  0.01307897  0.16314563  0.99310975     1.25400
Ni180      Ni  0.00606999  0.20820524  0.06403161     1.25400
C181        C  0.27966923  0.15000918  0.06748947     0.89600
C182        C  0.07375174  0.22287732  0.98589989     0.89600
C183        C  0.05619724  0.13819916  0.09595063     0.89600
C184        C  0.28251606  0.22549663  0.96856843     0.89800
O185        O  0.03590550  0.06848902  0.03606958    -0.72500
O186        O  0.29375302  0.35210664  0.93702120    -0.72600
O187        O  0.27655872  0.06983348  0.01688703    -0.72600
O188        O  0.04283493  0.35251139  0.95849198    -0.72700
O189        O  0.03314784  0.29816367  0.01924678    -0.72600
O190        O  0.28370533  0.36111060  0.09544700    -0.72600
O191        O  0.27986123  0.31111470  0.01140923    -0.72600
O192        O  0.04142455  0.34748471  0.10017286    -0.72600
Ni193      Ni  0.99495835  0.04725563  0.98541017     1.25400
Ni194      Ni  0.99244899  0.32726125  0.05921015     1.25400
C195        C  0.05692148  0.04781594  0.07898533     0.89600
C196        C  0.27759496  0.31951786  0.95824346     0.89600
C197        C  0.26411236  0.05939608  0.06556694     0.89600
C198        C  0.05366716  0.31514408  0.98056914     0.89800
N199        N  0.23294951  0.08860488  0.08773149    -0.01600
C200        C  0.19006447  0.08446320  0.09744326     0.01000
C201        C  0.17024522  0.12620941  0.09068352    -0.21900
C202        C  0.20055404  0.15462188  0.08324535    -0.22100
C203        C  0.23881392  0.13088436  0.08104502     0.00900
H204        H  0.13838203  0.13663638  0.10006622     0.14700
H205        H  0.19492994  0.18902981  0.07968097     0.14700
N206        N  0.10360789  0.25270537  0.96155916    -0.01600
C207        C  0.14803331  0.24962793  0.95361086     0.01000
C208        C  0.16232581  0.28788520  0.96781728    -0.21900
C209        C  0.12864388  0.31642188  0.97138155    -0.22100
C210        C  0.09402106  0.29459466  0.96775102     0.00900
H211        H  0.19310228  0.29867451  0.96898510     0.14700
H212        H  0.12930571  0.01637031  0.97803684     0.14700
N213        N  0.09292501  0.06769830  0.10634782    -0.01600
C214        C  0.12279288  0.05108299  0.14856877     0.01000
C215        C  0.10538849  0.05915464  0.19883059    -0.21900
C216        C  0.07432740  0.09228123  0.18639177    -0.22100
C217        C  0.07448595  0.10062563  0.13006424     0.00900
H218        H  0.12015879  0.05015184  0.23985253     0.14700
H219        H  0.05674379  0.11041509  0.21455335     0.14700
N220        N  0.24576682  0.25129821  0.94109646    -0.01600
C221        C  0.22078703  0.23824417  0.89864235     0.01000
C222        C  0.23486915  0.25886067  0.85035072    -0.21900
C223        C  0.25906640  0.29075023  0.86513374    -0.22100
C224        C  0.25899893  0.28909373  0.92172520     0.00900
H225        H  0.22168692  0.25738263  0.80904745     0.14700
H226        H  0.27253355  0.98087535  0.83800894     0.14700
C227        C  0.17409943  0.05353677  0.14612798    -0.00600
C228        C  0.17027311  0.23184918  0.90089795    -0.00600
O229        O  0.98318431  0.38184901  0.76708382    -0.72500
O230        O  0.04393435  0.44689126  0.86572440    -0.72600
O231        O  0.98355619  0.47247121  0.78548910    -0.72600
O232        O  0.04094615  0.36722612  0.84586291    -0.72700
O233        O  0.08930377  0.38342071  0.78586662    -0.72600
O234        O  0.01693491  0.47321469  0.70698854    -0.72600
O235        O  0.07619689  0.46896826  0.79088282    -0.72600
O236        O  0.03117090  0.38297572  0.70376454    -0.72600
Ni237      Ni  0.00977515  0.41756962  0.81770510     1.25400
Ni238      Ni  0.05533972  0.42778257  0.74423724     1.25400
C239        C  0.99953975  0.36527057  0.72468014     0.89600
C240        C  0.07415271  0.46540608  0.84399026     0.89600
C241        C  0.98871124  0.49000401  0.73668343     0.89600
C242        C  0.07640964  0.35885110  0.82466475     0.89800
O243        O  0.20595105  0.38803439  0.68544009    -0.72500
O244        O  0.14797345  0.44562347  0.79232214    -0.72600
O245        O  0.19406646  0.46759001  0.71264625    -0.72600
O246        O  0.15824026  0.35689125  0.76794980    -0.72700
O247        O  0.19618340  0.35571829  0.84627134    -0.72600
O248        O  0.25149638  0.44588571  0.76673493    -0.72600
O249        O  0.20339443  0.44333517  0.85108315    -0.72600
O250        O  0.24674064  0.36079883  0.75882847    -0.72600
Ni251      Ni  0.17320211  0.41432790  0.73767786     1.25400
Ni252      Ni  0.22703227  0.40025837  0.80817540     1.25400
C253        C  0.24003924  0.36766164  0.70649983     0.89600
C254        C  0.16737799  0.46149460  0.83200070     0.89600
C255        C  0.23079304  0.47448229  0.73230061     0.89600
C256        C  0.16845794  0.33869354  0.81748818     0.89800
N257        N  0.29026068  0.52361813  0.71408986    -0.01600
C258        C  0.29313982  0.56737430  0.70439924     0.01000
C259        C  0.25139418  0.58611883  0.70823083    -0.21900
C260        C  0.22373254  0.55497373  0.71488492    -0.22100
C261        C  0.24826527  0.51677184  0.71862825     0.00900
H262        H  0.24002760  0.61890097  0.69852338     0.14700
H263        H  0.18932749  0.55998271  0.71701615     0.14700
N264        N  0.97669436  0.66548859  0.69737896    -0.01600
C265        C  0.32196236  0.64033950  0.65519963     0.01000
C266        C  0.30826894  0.66315930  0.60478199    -0.21900
C267        C  0.27670304  0.69306353  0.61700534    -0.22100
C268        C  0.27427332  0.68641630  0.67313223     0.00900
H269        H  0.31223867  0.65289682  0.56387677     0.14700
H270        H  0.25507695  0.71367180  0.58899182     0.14700
N271        N  0.14489104  0.49541089  0.85914007    -0.01600
C272        C  0.16369987  0.51483563  0.90164377     0.01000
C273        C  0.14964378  0.49437716  0.95002979    -0.21900
C274        C  0.11573154  0.47199049  0.93594928    -0.22100
C275        C  0.10948441  0.47968811  0.87957901     0.00900
H276        H  0.15642469  0.50231833  0.99125350     0.14700
H277        H  0.09592060  0.45500824  0.96358586     0.14700
N278        N  0.14148337  0.63971213  0.84282651    -0.01600
C279        C  0.14500944  0.59459009  0.85017231     0.01000
C280        C  0.10415195  0.58259851  0.83870260    -0.21900
C281        C  0.07555540  0.61681540  0.83659899    -0.22100
C282        C  0.09854110  0.65054521  0.83848096     0.00900
H283        H  0.09250176  0.55230665  0.84043313     0.14700
H284        H  0.04107295  0.61723418  0.83229505     0.14700
C285        C  0.32071051  0.58878293  0.65808102    -0.00600
O286        O  0.11409158  0.38575991  0.52447863    -0.72500
O287        O  0.21151852  0.64462500  0.59812022    -0.72600
O288        O  0.20634452  0.37317376  0.51766809    -0.72600
O289        O  0.12804451  0.66074106  0.61195549    -0.72700
O290        O  0.12433562  0.61327868  0.55117672    -0.72600
O291        O  0.18786472  0.67566108  0.44365650    -0.72600
O292        O  0.20913561  0.61375176  0.52049005    -0.72600
O293        O  0.10019053  0.67346977  0.46530527    -0.72600
Ni294      Ni  0.16532340  0.68554385  0.56446074     1.25400
Ni295      Ni  0.15476127  0.64190670  0.49286531     1.25400
C296        C  0.08783261  0.37405226  0.48681799     0.89600
C297        C  0.22634537  0.61567072  0.56861684     0.89600
C298        C  0.21128209  0.36700313  0.46762225     0.89600
C299        C  0.11557054  0.62641845  0.59859605     0.89800
O300        O  0.08176026  0.49718336  0.46664972    -0.72500
O301        O  0.17517403  0.54932424  0.52691577    -0.72600
O302        O  0.16527404  0.49662632  0.44955227    -0.72600
O303        O  0.08518549  0.55359124  0.53894910    -0.72700
O304        O  0.10469862  0.51029479  0.61469605    -0.72600
O305        O  0.17298288  0.44351444  0.51586702    -0.72600
O306        O  0.18929354  0.49570530  0.59243936    -0.72600
O307        O  0.08870310  0.45473351  0.54561934    -0.72600
Ni308      Ni  0.12634546  0.52676975  0.49350493     1.25400
Ni309      Ni  0.13923488  0.47384368  0.56960535     1.25400
C310        C  0.07124244  0.46588716  0.49810771     0.89600
C311        C  0.19990160  0.52910610  0.56636286     0.89600
C312        C  0.18166554  0.45930864  0.46680755     0.89600
C313        C  0.08228846  0.54361016  0.59073321     0.89800
N314        N  0.04585632  0.40027431  0.46869471    -0.01600
C315        C  0.00367661  0.38916640  0.46228391     0.01000
C316        C  0.97802356  0.41665304  0.49115852    -0.21900
C317        C  0.99844832  0.45168212  0.49529802    -0.22100
C318        C  0.03888220  0.44107404  0.48155722     0.00900
H319        H  0.27978674  0.41434185  0.50495519     0.14700
H320        H  0.98640730  0.48134619  0.50926872     0.14700
N321        N  0.23423533  0.39736391  0.43769224    -0.01600
C322        C  0.26348629  0.39199994  0.39682756     0.01000
C323        C  0.24929440  0.42466506  0.35586390    -0.21900
C324        C  0.21929714  0.45286437  0.37676356    -0.22100
C325        C  0.21148638  0.43627718  0.42831410     0.00900
H326        H  0.26468785  0.43214144  0.31831779     0.14700
H327        H  0.20679087  0.48402763  0.35891228     0.14700
N328        N  0.06217345  0.57593964  0.62236085    -0.01600
C329        C  0.03557658  0.57066755  0.66550300     0.01000
C330        C  0.05576806  0.58373775  0.71200153    -0.21900
C331        C  0.08811547  0.60717056  0.69380860    -0.22100
C332        C  0.08977767  0.60286442  0.63797969     0.00900
H333        H  0.04097575  0.58631542  0.75089025     0.14700
H334        H  0.10600922  0.29410261  0.71758237     0.14700
N335        N  0.25515709  0.57903104  0.59066722    -0.01600
C336        C  0.29893654  0.57320907  0.60480922     0.01000
C337        C  0.31246129  0.53104442  0.59581355    -0.21900
C338        C  0.27752588  0.51045178  0.58445493    -0.22100
C339        C  0.24349169  0.54042075  0.57952503     0.00900
H340        H  0.34299609  0.51354031  0.60762064     0.14700
H341        H  0.27673644  0.47657712  0.58209278     0.14700
O342        O  0.28401027  0.50689233  0.35673622    -0.72500
O343        O  0.21875114  0.60722462  0.27345254    -0.72600
O344        O  0.22466311  0.51740731  0.27290694    -0.72600
O345        O  0.27973256  0.59657464  0.35443943    -0.72700
O346        O  0.31536425  0.60719042  0.27853116    -0.72600
O347        O  0.27293526  0.51637047  0.20939761    -0.72600
O348        O  0.25750170  0.60288648  0.19956435    -0.72600
O349        O  0.32949889  0.51368772  0.29160599    -0.72600
Ni350      Ni  0.24954759  0.55718559  0.31655776     1.25400
Ni351      Ni  0.29628422  0.56047145  0.24318919     1.25400
C352        C  0.31776846  0.49124869  0.33502085     0.89600
C353        C  0.22474380  0.61938489  0.22237106     0.89600
C354        C  0.24149381  0.50092416  0.23173222     0.89600
C355        C  0.30700950  0.61624706  0.32714055     0.89800
O356        O  0.10708275  0.49812136  0.35619553    -0.72500
O357        O  0.15935601  0.57031248  0.25185368    -0.72600
O358        O  0.10775726  0.58102821  0.33811887    -0.72600
O359        O  0.16064050  0.48287029  0.27847908    -0.72700
O360        O  0.12214811  0.49402913  0.19987322    -0.72600
O361        O  0.05243425  0.57482650  0.28159977    -0.72600
O362        O  0.10341190  0.57906614  0.19252356    -0.72600
O363        O  0.40083355  0.48945999  0.28114770    -0.72600
Ni364      Ni  0.13651669  0.53344827  0.30794396     1.25400
Ni365      Ni  0.08362519  0.53444463  0.23640616     1.25400
C366        C  0.07679376  0.48196218  0.33238887     0.89600
C367        C  0.14052444  0.58739976  0.20625025     0.89600
C368        C  0.06816323  0.59025051  0.32497829     0.89600
C369        C  0.15418356  0.47394579  0.22908645     0.89800
N370        N  0.33629687  0.64031790  0.35432272    -0.01600
C371        C  0.32699362  0.32727063  0.40155264     0.01000
C372        C  0.02028664  0.30442668  0.44406009    -0.21900
C373        C  0.05119990  0.61232834  0.42058458    -0.22100
C374        C  0.04151178  0.61594281  0.36463811     0.00900
H375        H  0.02208387  0.31021447  0.48726931     0.14700
H376        H  0.07848526  0.59368236  0.44208293     0.14700
N377        N  0.18906033  0.44864768  0.20607893    -0.01600
C378        C  0.19428936  0.40557805  0.19778393     0.01000
C379        C  0.23763602  0.39149252  0.20957317    -0.21900
C380        C  0.25941042  0.42582666  0.21609413    -0.22100
C381        C  0.22933813  0.45994910  0.21504793     0.00900
H382        H  0.25406809  0.36097327  0.20356391     0.14700
H383        H  0.29368261  0.42559791  0.22315226     0.14700
N384        N  0.34477086  0.45086209  0.36009436    -0.01600
C385        C  0.33815394  0.40720121  0.35884085     0.01000
C386        C  0.04206337  0.38651960  0.34150499    -0.21900
C387        C  0.07411837  0.41030482  0.34951716    -0.22100
C388        C  0.05524181  0.44927600  0.35869916     0.00900
H389        H  0.04749931  0.35677341  0.32460062     0.14700
H390        H  0.10672964  0.40264986  0.33802804     0.14700
N391        N  0.18948497  0.64322729  0.18821419    -0.01600
C392        C  0.19262392  0.33960818  0.14360179     0.01000
C393        C  0.17796812  0.32322059  0.09608002    -0.21900
C394        C  0.15509770  0.62330845  0.11296906    -0.22100
C395        C  0.16149376  0.61745106  0.16966455     0.00900
H396        H  0.17462377  0.34045739  0.05549455     0.14700
H397        H  0.13431494  0.60694319  0.08736648     0.14700
C398        C  0.31518772  0.37827978  0.40474318    -0.00600
O399        O  0.30460401  0.46711898  0.03279514    -0.72500
O400        O  0.05395406  0.53187709  0.95656574    -0.70200
O401        O  0.05767236  0.47065973  0.04356377    -0.72600
O402        O  0.29874284  0.52533625  0.94937795    -0.72700
O403        O  0.30239375  0.57314027  0.00905902    -0.72600
O404        O  0.03802835  0.50311388  0.11657457    -0.72600
O405        O  0.06053659  0.56037274  0.03520143    -0.72600
O406        O  0.28856889  0.51745628  0.08766473    -0.72600
Ni407      Ni  0.01307930  0.49648011  0.99310303     1.25400
Ni408      Ni  0.00607052  0.54153780  0.06402734     1.25400
C409        C  0.27967046  0.48334203  0.06748321     0.89600
C410        C  0.07375134  0.55621217  0.98589570     0.89600
C411        C  0.05619869  0.47153221  0.09594318     0.89600
C412        C  0.28251521  0.55883016  0.96856495     0.89800
O413        O  0.03590654  0.40182241  0.03606028    -0.72500
O414        O  0.29375127  0.68544108  0.93702198    -0.72600
O415        O  0.27655922  0.40316694  0.01687957    -0.72600
O416        O  0.04283319  0.68584527  0.95849263    -0.72700
O417        O  0.03314767  0.63149784  0.01924887    -0.72600
O418        O  0.28370255  0.69444318  0.09544691    -0.72600
O419        O  0.27986075  0.64444723  0.01140892    -0.72600
O420        O  0.04142178  0.68081859  0.10017518    -0.72600
Ni421      Ni  0.99495855  0.38058850  0.98540245     1.25400
Ni422      Ni  0.99244734  0.66059460  0.05921105     1.25400
C423        C  0.05692289  0.38114940  0.07897591     0.89600
C424        C  0.27759409  0.65285138  0.95824326     0.89600
C425        C  0.26411329  0.39272982  0.06555978     0.89600
C426        C  0.05366632  0.64847836  0.98057049     0.89800
N427        N  0.23295055  0.42193860  0.08772424    -0.01600
C428        C  0.19006555  0.41779726  0.09743614     0.01000
C429        C  0.17024648  0.45954367  0.09067725    -0.21900
C430        C  0.20055563  0.48795574  0.08323923    -0.22100
C431        C  0.23881516  0.46421786  0.08103803     0.00900
H432        H  0.13838356  0.46997096  0.10006153     0.14700
H433        H  0.19493196  0.52236396  0.07967578     0.14700
N434        N  0.10360732  0.58604080  0.96155722    -0.01600
C435        C  0.14803247  0.58296356  0.95360738     0.01000
C436        C  0.16232462  0.62122139  0.96781252    -0.21900
C437        C  0.12864272  0.64975739  0.97137947    -0.22100
C438        C  0.09402027  0.62792967  0.96775113     0.00900
H439        H  0.19310184  0.63201262  0.96897543     0.14700
H440        H  0.12930541  0.34970331  0.97803301     0.14700
N441        N  0.09292674  0.40103158  0.10633797    -0.01600
C442        C  0.12279411  0.38441585  0.14855929     0.01000
C443        C  0.10538890  0.39248561  0.19882112    -0.21900
C444        C  0.07432799  0.42561255  0.18638270    -0.22100
C445        C  0.07448773  0.43395833  0.13005534     0.00900
H446        H  0.12015851  0.38348206  0.23984222     0.14700
H447        H  0.05674451  0.44374529  0.21454393     0.14700
N448        N  0.24576568  0.58463195  0.94109394    -0.01600
C449        C  0.22078555  0.57157867  0.89863921     0.01000
C450        C  0.23486732  0.59219655  0.85034850    -0.21900
C451        C  0.25906532  0.62408507  0.86513231    -0.22100
C452        C  0.25899836  0.62242753  0.92172379     0.00900
H453        H  0.22168350  0.59072018  0.80904330     0.14700
H454        H  0.27253108  0.31420876  0.83800494     0.14700
C455        C  0.17410055  0.38687085  0.14612068    -0.00600
C456        C  0.17027148  0.56518342  0.90089499    -0.00600
O457        O  0.98318439  0.71518265  0.76708636    -0.72500
O458        O  0.04393368  0.78022754  0.86572449    -0.72600
O459        O  0.98355607  0.80580519  0.78548929    -0.72600
O460        O  0.04094602  0.70056170  0.84586578    -0.72700
O461        O  0.08930338  0.71675538  0.78586867    -0.72600
O462        O  0.01693508  0.80654801  0.70698901    -0.72600
O463        O  0.07619684  0.80230304  0.79088277    -0.72600
O464        O  0.03117070  0.71630908  0.70376689    -0.72600
Ni465      Ni  0.00977499  0.75090454  0.81770654     1.25400
Ni466      Ni  0.05533959  0.76111659  0.74423847     1.25400
C467        C  0.99953973  0.69860387  0.72468275     0.89600
C468        C  0.07415223  0.79874193  0.84399013     0.89600
C469        C  0.98871141  0.82333743  0.73668364     0.89600
C470        C  0.07640912  0.69218619  0.82466698     0.89800
O471        O  0.20595134  0.72136852  0.68543990    -0.72500
O472        O  0.14797345  0.77895865  0.79232191    -0.72600
O473        O  0.19406700  0.80092436  0.71264595    -0.72600
O474        O  0.15823926  0.69022573  0.76794865    -0.72700
O475        O  0.19618197  0.68905216  0.84627076    -0.72600
O476        O  0.25149605  0.77921972  0.76673603    -0.72600
O477        O  0.20339383  0.77666900  0.85108404    -0.72600
O478        O  0.24674027  0.69413310  0.75882888    -0.72600
Ni479      Ni  0.17320199  0.74766246  0.73767737     1.25400
Ni480      Ni  0.22703146  0.73359235  0.80817581     1.25400
C481        C  0.24003941  0.70099578  0.70650016     0.89600
C482        C  0.16737780  0.79482911  0.83200136     0.89600
C483        C  0.23079332  0.80781640  0.73230115     0.89600
C484        C  0.16845650  0.67202775  0.81748705     0.89800
N485        N  0.29026134  0.85695152  0.71409021    -0.01600
C486        C  0.29314171  0.90070743  0.70440127     0.01000
C487        C  0.25139631  0.91945257  0.70823356    -0.21900
C488        C  0.22373387  0.88830806  0.71488699    -0.22100
C489        C  0.24826582  0.85010581  0.71862881     0.00900
H490        H  0.24003029  0.95223534  0.69852787     0.14700
H491        H  0.18932848  0.89331750  0.71701885     0.14700
N492        N  0.97669867  0.99882133  0.69738203    -0.01600
C493        C  0.32196586  0.97367219  0.65520250     0.01000
C494        C  0.30827141  0.99649193  0.60478504    -0.21900
C495        C  0.27670556  0.02639599  0.61700971    -0.22100
C496        C  0.27427702  0.01974860  0.67313650     0.00900
H497        H  0.31224010  0.98623021  0.56388082     0.14700
H498        H  0.25507934  0.04700389  0.58899795     0.14700
N499        N  0.14489140  0.82874580  0.85914102    -0.01600
C500        C  0.16370051  0.84816942  0.90164596     0.01000
C501        C  0.14964393  0.82771043  0.95003110    -0.21900
C502        C  0.11573049  0.80532565  0.93594935    -0.22100
C503        C  0.10948397  0.81302398  0.87957896     0.00900
H504        H  0.15642488  0.83565031  0.99125491     0.14700
H505        H  0.09591889  0.78834504  0.96358466     0.14700
N506        N  0.14148733  0.97304717  0.84283530    -0.01600
C507        C  0.14501183  0.92792523  0.85017887     0.01000
C508        C  0.10415429  0.91593493  0.83870715    -0.21900
C509        C  0.07555867  0.95015238  0.83660372    -0.22100
C510        C  0.09854514  0.98388153  0.83848780     0.00900
H511        H  0.09250359  0.88564364  0.84043549     0.14700
H512        H  0.04107598  0.95057196  0.83229729     0.14700
C513        C  0.32071419  0.92211542  0.65808441    -0.00600
O514        O  0.11409363  0.71909418  0.52447986    -0.72500
O515        O  0.21152335  0.97795529  0.59812615    -0.72600
O516        O  0.20634681  0.70650761  0.51766938    -0.72600
O517        O  0.12804976  0.99407234  0.61196257    -0.72700
O518        O  0.12434257  0.94660814  0.55118621    -0.72600
O519        O  0.18786803  0.00899048  0.44366137    -0.72600
O520        O  0.20914123  0.94708295  0.52049540    -0.72600
O521        O  0.10019417  0.00679581  0.46531363    -0.72600
Ni522      Ni  0.16532854  0.01887399  0.56446615     1.25400
Ni523      Ni  0.15476618  0.97523563  0.49287238     1.25400
C524        C  0.08783468  0.70738691  0.48681891     0.89600
C525        C  0.22635058  0.94900161  0.56862217     0.89600
C526        C  0.21128444  0.70033710  0.46762342     0.89600
C527        C  0.11557646  0.95974904  0.59860451     0.89800
O528        O  0.08176453  0.83051877  0.46665098    -0.72500
O529        O  0.17517902  0.88265642  0.52692089    -0.72600
O530        O  0.16527844  0.82996128  0.44955456    -0.72600
O531        O  0.08518980  0.88692395  0.53895454    -0.72700
O532        O  0.10470381  0.84362640  0.61470008    -0.72600
O533        O  0.17298566  0.77684795  0.51586716    -0.72600
O534        O  0.18929871  0.82903581  0.59244192    -0.72600
O535        O  0.08870621  0.78806812  0.54561977    -0.72600
Ni536      Ni  0.12635000  0.86010377  0.49350862     1.25400
Ni537      Ni  0.13923893  0.80717616  0.56960704     1.25400
C538        C  0.07124619  0.79922222  0.49810784     0.89600
C539        C  0.19990701  0.86243700  0.56636656     0.89600
C540        C  0.18166891  0.79264296  0.46680848     0.89600
C541        C  0.08229324  0.87694208  0.59073871     0.89800
N542        N  0.04585852  0.73360923  0.46869640    -0.01600
C543        C  0.00367869  0.72250160  0.46228583     0.01000
C544        C  0.97802572  0.74999087  0.49115722    -0.21900
C545        C  0.99845116  0.78501982  0.49529456    -0.22100
C546        C  0.03888534  0.77440983  0.48155639     0.00900
H547        H  0.27978758  0.74768073  0.50495436     0.14700
H548        H  0.98641007  0.81468537  0.50926352     0.14700
N549        N  0.23423778  0.73069789  0.43769326    -0.01600
C550        C  0.26348921  0.72533393  0.39682909     0.01000
C551        C  0.24929831  0.75799899  0.35586513    -0.21900
C552        C  0.21930091  0.78619870  0.37676451    -0.22100
C553        C  0.21148919  0.76961132  0.42831467     0.00900
H554        H  0.26469213  0.76547450  0.31831949     0.14700
H555        H  0.20679463  0.81736180  0.35891317     0.14700
N556        N  0.06217864  0.90927108  0.62236784    -0.01600
C557        C  0.03558013  0.90399980  0.66550866     0.01000
C558        C  0.05577014  0.91707055  0.71200784    -0.21900
C559        C  0.08811823  0.94050285  0.69381633    -0.22100
C560        C  0.08978272  0.93619567  0.63798788     0.00900
H561        H  0.04097599  0.91964916  0.75089628     0.14700
H562        H  0.10601124  0.62743234  0.71758276     0.14700
N563        N  0.25516217  0.91236207  0.59067156    -0.01600
C564        C  0.29894154  0.90654091  0.60481271     0.01000
C565        C  0.31246700  0.86437657  0.59581613    -0.21900
C566        C  0.27753184  0.84378336  0.58445735    -0.22100
C567        C  0.24349709  0.87375182  0.57952901     0.00900
H568        H  0.34300250  0.84687251  0.60762183     0.14700
H569        H  0.27674288  0.80990963  0.58209420     0.14700
O570        O  0.28401651  0.84022266  0.35673502    -0.72500
O571        O  0.21875549  0.94055424  0.27345391    -0.72600
O572        O  0.22466836  0.85073637  0.27290723    -0.72600
O573        O  0.27973850  0.92990497  0.35443732    -0.72700
O574        O  0.31536884  0.94052073  0.27852789    -0.72600
O575        O  0.27293890  0.84969989  0.20939615    -0.72600
O576        O  0.25750398  0.93621673  0.19956380    -0.72600
O577        O  0.32950363  0.84701702  0.29160280    -0.72600
Ni578      Ni  0.24955316  0.89051530  0.31655724     1.25400
Ni579      Ni  0.29628805  0.89380130  0.24318689     1.25400
C580        C  0.31777385  0.82457853  0.33501865     0.89600
C581        C  0.22474705  0.95271558  0.22237249     0.89600
C582        C  0.24149848  0.83425286  0.23173235     0.89600
C583        C  0.30701449  0.94957796  0.32713723     0.89800
O584        O  0.10708829  0.83144996  0.35619514    -0.72500
O585        O  0.15936050  0.90364210  0.25185389    -0.72600
O586        O  0.10776106  0.91435684  0.33811878    -0.72600
O587        O  0.16064538  0.81619999  0.27847882    -0.72700
O588        O  0.12215251  0.82735819  0.19987307    -0.72600
O589        O  0.05243871  0.90815512  0.28159832    -0.72600
O590        O  0.10341689  0.91239490  0.19252307    -0.72600
O591        O  0.40083871  0.82278895  0.28114752    -0.72600
Ni592      Ni  0.13652137  0.86677739  0.30794374     1.25400
Ni593      Ni  0.08363005  0.86777344  0.23640556     1.25400
C594        C  0.07679936  0.81529097  0.33238835     0.89600
C595        C  0.14052883  0.92072968  0.20625074     0.89600
C596        C  0.06816718  0.92357922  0.32497700     0.89600
C597        C  0.15418799  0.80727541  0.22908646     0.89800
N598        N  0.33630178  0.97364972  0.35431839    -0.01600
C599        C  0.32699357  0.66060308  0.40155760     0.01000
C600        C  0.02028824  0.63776032  0.44406418    -0.21900
C601        C  0.05120064  0.94565395  0.42058345    -0.22100
C602        C  0.04151485  0.94927103  0.36463625     0.00900
H603        H  0.02208908  0.64355044  0.48727131     0.14700
H604        H  0.07848426  0.92700557  0.44208263     0.14700
N605        N  0.18906421  0.78197701  0.20607945    -0.01600
C606        C  0.19429136  0.73890794  0.19778308     0.01000
C607        C  0.23763804  0.72482109  0.20957094    -0.21900
C608        C  0.25941364  0.75915426  0.21609435    -0.22100
C609        C  0.22934228  0.79327748  0.21504881     0.00900
H610        H  0.25406910  0.69430187  0.20355951     0.14700
H611        H  0.29368625  0.75892463  0.22315214     0.14700
N612        N  0.34477601  0.78419200  0.36009242    -0.01600
C613        C  0.33815865  0.74053099  0.35884295     0.01000
C614        C  0.04206933  0.71984738  0.34151259    -0.21900
C615        C  0.07412393  0.74363374  0.34952178    -0.22100
C616        C  0.05524701  0.78260561  0.35869868     0.00900
H617        H  0.04750665  0.69009993  0.32461664     0.14700
H618        H  0.10673664  0.73597707  0.33803571     0.14700
N619        N  0.18948739  0.97655948  0.18821831    -0.01600
C620        C  0.19262031  0.67293970  0.14360101     0.01000
C621        C  0.17796352  0.65655225  0.09607975    -0.21900
C622        C  0.15510066  0.95664232  0.11297154    -0.22100
C623        C  0.16149707  0.95078305  0.16966677     0.00900
H624        H  0.17461936  0.67378945  0.05549320     0.14700
H625        H  0.13431906  0.94027685  0.08736772     0.14700
C626        C  0.31519008  0.71161263  0.40474591    -0.00600
O627        O  0.30460248  0.80045277  0.03280014    -0.72500
O628        O  0.05395392  0.86521052  0.95657249    -0.70200
O629        O  0.05767094  0.80399283  0.04356973    -0.72600
O630        O  0.29874272  0.85867048  0.94938401    -0.72700
O631        O  0.30239375  0.90647420  0.00906533    -0.72600
O632        O  0.03802631  0.83644610  0.11658098    -0.72600
O633        O  0.06053651  0.89370564  0.03520867    -0.72600
O634        O  0.28856696  0.85078981  0.08766976    -0.72600
Ni635      Ni  0.01307853  0.82981382  0.99310905     1.25400
Ni636      Ni  0.00606949  0.87487093  0.06403380     1.25400
C637        C  0.27966853  0.81667561  0.06748785     0.89600
C638        C  0.07375154  0.88954508  0.98590281     0.89600
C639        C  0.05619651  0.80486456  0.09594915     0.89600
C640        C  0.28251540  0.89216442  0.96857090     0.89800
O641        O  0.03590577  0.73515567  0.03606187    -0.72500
O642        O  0.29375364  0.01877438  0.93702710    -0.72600
O643        O  0.27655826  0.73650121  0.01688082    -0.72600
O644        O  0.04283525  0.01917894  0.95849975    -0.72700
O645        O  0.03314838  0.96483091  0.01925426    -0.72600
O646        O  0.28370367  0.02777614  0.09545353    -0.72600
O647        O  0.27986157  0.97778134  0.01141381    -0.72600
O648        O  0.04142297  0.01415110  0.10018159    -0.72600
Ni649      Ni  0.99495722  0.71392243  0.98540369     1.25400
Ni650      Ni  0.99244830  0.99392764  0.05921685     1.25400
C651        C  0.05692120  0.71448267  0.07897823     0.89600
C652        C  0.27759573  0.98618510  0.95824813     0.89600
C653        C  0.26411161  0.72606333  0.06556036     0.89600
C654        C  0.05366777  0.98181165  0.98057688     0.89800
N655        N  0.23294847  0.75527153  0.08772489    -0.01600
C656        C  0.19006355  0.75112931  0.09743612     0.01000
C657        C  0.17024421  0.79287546  0.09067843    -0.21900
C658        C  0.20055304  0.82128818  0.08324249    -0.22100
C659        C  0.23881302  0.79755085  0.08104119     0.00900
H660        H  0.13838016  0.80330240  0.10006158     0.14700
H661        H  0.19492910  0.85569548  0.07968047     0.14700
N662        N  0.10360815  0.91937328  0.96156416    -0.01600
C663        C  0.14803345  0.91629585  0.95361389     0.01000
C664        C  0.16232608  0.95455328  0.96782006    -0.21900
C665        C  0.12864425  0.98308960  0.97138676    -0.22100
C666        C  0.09402151  0.96126217  0.96775795     0.00900
H667        H  0.19310240  0.96534451  0.96898359     0.14700
H668        H  0.12930371  0.68303935  0.97803068     0.14700
N669        N  0.09292485  0.73436457  0.10634128    -0.01600
C670        C  0.12279313  0.71774859  0.14856156     0.01000
C671        C  0.10538926  0.72581766  0.19882414    -0.21900
C672        C  0.07432698  0.75894339  0.18638756    -0.22100
C673        C  0.07448546  0.76729023  0.13006026     0.00900
H674        H  0.12016054  0.71681346  0.23984618     0.14700
H675        H  0.05674258  0.77707474  0.21454950     0.14700
N676        N  0.24576644  0.91796624  0.94109948    -0.01600
C677        C  0.22078681  0.90491220  0.89864501     0.01000
C678        C  0.23486972  0.92552873  0.85035397    -0.21900
C679        C  0.25906797  0.95741750  0.86513733    -0.22100
C680        C  0.25899980  0.95576130  0.92172876     0.00900
H681        H  0.22168715  0.92405144  0.80904967     0.14700
H682        H  0.27253026  0.64754466  0.83800405     0.14700
C683        C  0.17409943  0.72020254  0.14612063    -0.00600
C684        C  0.17027269  0.89851702  0.90090036    -0.00600
O685        O  0.31652162  0.04851663  0.76708743    -0.72500
O686        O  0.37726785  0.11356478  0.86572355    -0.72600
O687        O  0.31689084  0.13914027  0.78548692    -0.72600
O688        O  0.37428355  0.03389890  0.84586829    -0.72700
O689        O  0.42264089  0.05009024  0.78586964    -0.72600
O690        O  0.35027086  0.13988254  0.70698757    -0.72600
O691        O  0.40953354  0.13563793  0.79088260    -0.72600
O692        O  0.36450786  0.04964294  0.70376789    -0.72600
Ni693      Ni  0.34311096  0.08424032  0.81770622     1.25400
Ni694      Ni  0.38867636  0.09445124  0.74423843     1.25400
C695        C  0.33287726  0.03193738  0.72468453     0.89600
C696        C  0.40748774  0.13207718  0.84398996     0.89600
C697        C  0.32204598  0.15667193  0.73668085     0.89600
C698        C  0.40974692  0.02552263  0.82467022     0.89800
O699        O  0.53928813  0.05469992  0.68544503    -0.72500
O700        O  0.48130931  0.11228671  0.79232862    -0.72600
O701        O  0.52740036  0.13425574  0.71264992    -0.72600
O702        O  0.49157765  0.02355652  0.76795482    -0.72700
O703        O  0.52952014  0.02238681  0.84627658    -0.72600
O704        O  0.58483278  0.11255195  0.76673403    -0.72600
O705        O  0.53673271  0.11000382  0.85108443    -0.72600
O706        O  0.58007791  0.02746486  0.75883340    -0.72600
Ni707      Ni  0.50653821  0.08099285  0.73768282     1.25400
Ni708      Ni  0.56036964  0.06692571  0.80817832     1.25400
C709        C  0.57337660  0.03432747  0.70650482     0.89600
C710        C  0.50071466  0.12816050  0.83200428     0.89600
C711        C  0.56412792  0.14114822  0.73230062     0.89600
C712        C  0.50179455  0.00536114  0.81749419     0.89800
N713        N  0.62359458  0.19028467  0.71408553    -0.01600
C714        C  0.62647286  0.23404095  0.70439496     0.01000
C715        C  0.58472704  0.25278500  0.70822677    -0.21900
C716        C  0.55706594  0.22163944  0.71488195    -0.22100
C717        C  0.58159929  0.18343782  0.71862535     0.00900
H718        H  0.57336025  0.28556666  0.69851979     0.14700
H719        H  0.52266080  0.22664808  0.71701431     0.14700
N720        N  0.31002770  0.33215537  0.69737636    -0.01600
C721        C  0.65529534  0.30700675  0.65519668     0.01000
C722        C  0.64160042  0.32982671  0.60477940    -0.21900
C723        C  0.61003427  0.35973012  0.61700432    -0.22100
C724        C  0.60760584  0.35308255  0.67313110     0.00900
H725        H  0.64556933  0.31956529  0.56387537     0.14700
H726        H  0.58840710  0.38033814  0.58899109     0.14700
N727        N  0.47822771  0.16207727  0.85914253    -0.01600
C728        C  0.49703591  0.18150153  0.90164678     0.01000
C729        C  0.48297909  0.16104296  0.95003209    -0.21900
C730        C  0.44906568  0.13865819  0.93595050    -0.22100
C731        C  0.44281996  0.14635650  0.87957995     0.00900
H732        H  0.48975964  0.16898340  0.99125723     0.14700
H733        H  0.42925380  0.12167860  0.96358492     0.14700
N734        N  0.47481826  0.30637791  0.84282825    -0.01600
C735        C  0.47834484  0.26125584  0.85017443     0.01000
C736        C  0.43748789  0.24926389  0.83870220    -0.21900
C737        C  0.40889087  0.28348020  0.83659801    -0.22100
C738        C  0.43187576  0.31721044  0.83848041     0.00900
H739        H  0.42583819  0.21897233  0.84042977     0.14700
H740        H  0.37440782  0.28389820  0.83229307     0.14700
C741        C  0.65404416  0.25545001  0.65807783    -0.00600
O742        O  0.44743200  0.05242290  0.52448411    -0.72500
O743        O  0.54485078  0.31129094  0.59811833    -0.72600
O744        O  0.53968506  0.03983710  0.51767336    -0.72600
O745        O  0.46137656  0.32740679  0.61195437    -0.72700
O746        O  0.45766839  0.27994387  0.55117620    -0.72600
O747        O  0.52119569  0.34232713  0.44365525    -0.72600
O748        O  0.54246785  0.28041777  0.52048826    -0.72600
O749        O  0.43352186  0.34013496  0.46530494    -0.72600
Ni750      Ni  0.49865497  0.35220970  0.56445948     1.25400
Ni751      Ni  0.48809305  0.30857230  0.49286437     1.25400
C752        C  0.42117223  0.04071376  0.48682543     0.89600
C753        C  0.55967838  0.28233724  0.56861446     0.89600
C754        C  0.54462207  0.03366633  0.46762730     0.89600
C755        C  0.44890341  0.29308378  0.59859546     0.89800
O756        O  0.41509858  0.16384375  0.46665445    -0.72500
O757        O  0.50850958  0.21598862  0.52691701    -0.72600
O758        O  0.49861219  0.16328876  0.44955597    -0.72600
O759        O  0.41852175  0.22025342  0.53895106    -0.72700
O760        O  0.43803659  0.17695943  0.61469961    -0.72600
O761        O  0.50632273  0.11017793  0.51587208    -0.72600
O762        O  0.52263144  0.16237102  0.59244224    -0.72600
O763        O  0.42204237  0.12139591  0.54562572    -0.72600
Ni764      Ni  0.45968252  0.19343193  0.49350784     1.25400
Ni765      Ni  0.47257375  0.14050765  0.56960999     1.25400
C766        C  0.40458115  0.13254838  0.49811414     0.89600
C767        C  0.53323796  0.19577168  0.56636387     0.89600
C768        C  0.51500471  0.12597161  0.46681185     0.89600
C769        C  0.41562510  0.21027374  0.59073560     0.89800
N770        N  0.37919573  0.06693494  0.46870342    -0.01600
C771        C  0.33701663  0.05582600  0.46229199     0.01000
C772        C  0.31136325  0.08331213  0.49116703    -0.21900
C773        C  0.33178728  0.11834184  0.49530610    -0.22100
C774        C  0.37222109  0.10773448  0.48156534     0.00900
H775        H  0.61312510  0.08100058  0.50496323     0.14700
H776        H  0.31974586  0.14800628  0.50927524     0.14700
N777        N  0.56757511  0.06402738  0.43769606    -0.01600
C778        C  0.59682772  0.05866476  0.39683244     0.01000
C779        C  0.58263792  0.09133083  0.35586971    -0.21900
C780        C  0.55263918  0.11952927  0.37676857    -0.22100
C781        C  0.54482657  0.10294094  0.42831832     0.00900
H782        H  0.59803294  0.09880691  0.31832497     0.14700
H783        H  0.54013258  0.15069328  0.35891663     0.14700
N784        N  0.39550853  0.24260392  0.62236146    -0.01600
C785        C  0.36891009  0.23733388  0.66550248     0.01000
C786        C  0.38910003  0.25040563  0.71200091    -0.21900
C787        C  0.42144723  0.27383834  0.69380802    -0.22100
C788        C  0.42311138  0.26952997  0.63797983     0.00900
H789        H  0.37430575  0.25298513  0.75088930     0.14700
H790        H  0.43934649  0.96076499  0.71759096     0.14700
N791        N  0.58849166  0.24569825  0.59066397    -0.01600
C792        C  0.63227119  0.23987678  0.60480542     0.01000
C793        C  0.64579681  0.19771238  0.59580943    -0.21900
C794        C  0.61086176  0.17711908  0.58445246    -0.22100
C795        C  0.57682730  0.20708756  0.57952314     0.00900
H796        H  0.67633173  0.18020816  0.60761675     0.14700
H797        H  0.61007235  0.14324478  0.58209219     0.14700
O798        O  0.61734995  0.17355845  0.35673667    -0.72500
O799        O  0.55209043  0.27389097  0.27345191    -0.72600
O800        O  0.55800158  0.18407259  0.27290906    -0.72600
O801        O  0.61307187  0.26324087  0.35443692    -0.72700
O802        O  0.64870276  0.27385519  0.27852777    -0.72600
O803        O  0.60627161  0.18303459  0.20939700    -0.72600
O804        O  0.59083917  0.26955160  0.19956227    -0.72600
O805        O  0.66283608  0.18035106  0.29160335    -0.72600
Ni806      Ni  0.58288687  0.22385150  0.31655744     1.25400
Ni807      Ni  0.62962174  0.22713575  0.24318689     1.25400
C808        C  0.65110684  0.15791313  0.33502008     0.89600
C809        C  0.55808219  0.28605120  0.22236998     0.89600
C810        C  0.57483128  0.16758831  0.23173452     0.89600
C811        C  0.64034790  0.28291329  0.32713667     0.89800
O812        O  0.44042144  0.16479495  0.35619944    -0.72500
O813        O  0.49269533  0.23697972  0.25185190    -0.72600
O814        O  0.44109666  0.24770095  0.33811619    -0.72600
O815        O  0.49397800  0.14953869  0.27848340    -0.72700
O816        O  0.45548575  0.16069579  0.19987719    -0.72600
O817        O  0.38577351  0.24149585  0.28159916    -0.72600
O818        O  0.43675062  0.24573302  0.19252294    -0.72600
O819        O  0.73417276  0.15612957  0.28115309    -0.72600
Ni820      Ni  0.46985559  0.20011880  0.30794484     1.25400
Ni821      Ni  0.41696395  0.20111272  0.23640810     1.25400
C822        C  0.41013237  0.14863477  0.33239458     0.89600
C823        C  0.47386328  0.25406677  0.20624886     0.89600
C824        C  0.40150240  0.25692205  0.32497579     0.89600
C825        C  0.48752058  0.14061260  0.22909144     0.89800
N826        N  0.66963322  0.30698721  0.35431731    -0.01600
C827        C  0.66033125  0.99393321  0.40155489     0.01000
C828        C  0.35362278  0.97108689  0.44406230    -0.21900
C829        C  0.38453405  0.27899677  0.42058166    -0.22100
C830        C  0.37484964  0.28261429  0.36463412     0.00900
H831        H  0.35542148  0.97687448  0.48727036     0.14700
H832        H  0.41181845  0.26034958  0.44208171     0.14700
N833        N  0.52239640  0.11531270  0.20608501    -0.01600
C834        C  0.52762324  0.07224306  0.19779076     0.01000
C835        C  0.57096945  0.05815572  0.20958066    -0.21900
C836        C  0.59274548  0.09248912  0.21610125    -0.22100
C837        C  0.56267466  0.12661282  0.21505328     0.00900
H838        H  0.58739994  0.02763654  0.20357182     0.14700
H839        H  0.62701785  0.09225915  0.22315898     0.14700
N840        N  0.67811132  0.11752824  0.36009671    -0.01600
C841        C  0.67150124  0.07386405  0.35885158     0.01000
C842        C  0.37541918  0.05318323  0.34153592    -0.21900
C843        C  0.40746714  0.07697790  0.34954225    -0.22100
C844        C  0.38858209  0.11594865  0.35870791     0.00900
H845        H  0.38087160  0.02342584  0.32466900     0.14700
H846        H  0.44008259  0.06932395  0.33806827     0.14700
N847        N  0.52282285  0.30989490  0.18821442    -0.01600
C848        C  0.52595468  0.00627396  0.14360694     0.01000
C849        C  0.51129840  0.98988768  0.09608464    -0.21900
C850        C  0.48843620  0.28997614  0.11296845    -0.22100
C851        C  0.49483227  0.28411846  0.16966376     0.00900
H852        H  0.50795367  0.00712617  0.05549867     0.14700
H853        H  0.46765402  0.27361134  0.08736583     0.14700
C854        C  0.64852875  0.04494274  0.40474889    -0.00600
O855        O  0.63793668  0.13378519  0.03280281    -0.72500
O856        O  0.38728741  0.19854176  0.95657116    -0.70200
O857        O  0.39100537  0.13732587  0.04357141    -0.72600
O858        O  0.63207598  0.19200131  0.94938381    -0.72700
O859        O  0.63572797  0.23980752  0.00906168    -0.72600
O860        O  0.37136004  0.16978149  0.11658053    -0.72600
O861        O  0.39387062  0.22703898  0.03520573    -0.72600
O862        O  0.62190047  0.18412469  0.08766855    -0.72600
Ni863      Ni  0.34641237  0.16314565  0.99310974     1.25400
Ni864      Ni  0.33940339  0.20820525  0.06403160     1.25400
C865        C  0.61300254  0.15000918  0.06748950     0.89600
C866        C  0.40708518  0.22287730  0.98589991     0.89600
C867        C  0.38953060  0.13819911  0.09595064     0.89600
C868        C  0.61584922  0.22549659  0.96856848     0.89800
O869        O  0.36923896  0.06848901  0.03606951    -0.72500
O870        O  0.62708645  0.35210671  0.93702125    -0.72600
O871        O  0.60989192  0.06983346  0.01688699    -0.72600
O872        O  0.37616820  0.35251138  0.95849202    -0.72700
O873        O  0.36648117  0.29816363  0.01924671    -0.72600
O874        O  0.61703881  0.36111054  0.09544696    -0.72600
O875        O  0.61319465  0.31111468  0.01140927    -0.72600
O876        O  0.37475784  0.34748469  0.10017285    -0.72600
Ni877      Ni  0.32829179  0.04725563  0.98541019     1.25400
Ni878      Ni  0.32578230  0.32726124  0.05921011     1.25400
C879        C  0.39025475  0.04781595  0.07898537     0.89600
C880        C  0.61092839  0.31951790  0.95824351     0.89600
C881        C  0.59744572  0.05939614  0.06556698     0.89600
C882        C  0.38700049  0.31514408  0.98056915     0.89800
N883        N  0.56628288  0.08860493  0.08773145    -0.01600
C884        C  0.52339785  0.08446318  0.09744328     0.01000
C885        C  0.50357839  0.12620935  0.09068355    -0.21900
C886        C  0.53388722  0.15462184  0.08324536    -0.22100
C887        C  0.57214722  0.13088441  0.08104493     0.00900
H888        H  0.47171536  0.13663624  0.10006619     0.14700
H889        H  0.52826291  0.18902979  0.07968097     0.14700
N890        N  0.43694118  0.25270537  0.96155913    -0.01600
C891        C  0.48136659  0.24962795  0.95361084     0.01000
C892        C  0.49565918  0.28788523  0.96781727    -0.21900
C893        C  0.46197711  0.31642185  0.97138153    -0.22100
C894        C  0.42735433  0.29459462  0.96775103     0.00900
H895        H  0.52643550  0.29867461  0.96898517     0.14700
H896        H  0.46263892  0.01637023  0.97803694     0.14700
N897        N  0.42625825  0.06769826  0.10634783    -0.01600
C898        C  0.45612612  0.05108298  0.14856872     0.01000
C899        C  0.43872171  0.05915470  0.19883057    -0.21900
C900        C  0.40766063  0.09228125  0.18639165    -0.22100
C901        C  0.40781925  0.10062561  0.13006420     0.00900
H902        H  0.45349155  0.05015191  0.23985222     0.14700
H903        H  0.39007703  0.11041496  0.21455322     0.14700
N904        N  0.57910007  0.25129824  0.94109648    -0.01600
C905        C  0.55412029  0.23824411  0.89864241     0.01000
C906        C  0.56820245  0.25886059  0.85035080    -0.21900
C907        C  0.59239970  0.29075026  0.86513388    -0.22100
C908        C  0.59233220  0.28909377  0.92172533     0.00900
H909        H  0.55502077  0.25738245  0.80904790     0.14700
H910        H  0.60586747  0.98087565  0.83800867     0.14700
C911        C  0.50743276  0.05353673  0.14612797    -0.00600
C912        C  0.50360636  0.23184913  0.90089796    -0.00600
O913        O  0.31651772  0.38184897  0.76708391    -0.72500
O914        O  0.37726776  0.44689126  0.86572445    -0.72600
O915        O  0.31688963  0.47247119  0.78548909    -0.72600
O916        O  0.37427963  0.36722617  0.84586292    -0.72700
O917        O  0.42263715  0.38342070  0.78586649    -0.72600
O918        O  0.35026820  0.47321468  0.70698850    -0.72600
O919        O  0.40953016  0.46896823  0.79088280    -0.72600
O920        O  0.36450416  0.38297570  0.70376455    -0.72600
Ni921      Ni  0.34310859  0.41756962  0.81770513     1.25400
Ni922      Ni  0.38867302  0.42778256  0.74423720     1.25400
C923        C  0.33287304  0.36527056  0.72468019     0.89600
C924        C  0.40748604  0.46540610  0.84399025     0.89600
C925        C  0.32204465  0.49000405  0.73668345     0.89600
C926        C  0.40974311  0.35885117  0.82466473     0.89800
O927        O  0.53928445  0.38803439  0.68544003    -0.72500
O928        O  0.48130686  0.44562348  0.79232212    -0.72600
O929        O  0.52739995  0.46759004  0.71264627    -0.72600
O930        O  0.49157369  0.35689118  0.76794971    -0.72700
O931        O  0.52951664  0.35571828  0.84627135    -0.72600
O932        O  0.58482972  0.44588565  0.76673495    -0.72600
O933        O  0.53672772  0.44333521  0.85108314    -0.72600
O934        O  0.58007392  0.36079876  0.75882848    -0.72600
Ni935      Ni  0.50653553  0.41432791  0.73767783     1.25400
Ni936      Ni  0.56036554  0.40025837  0.80817539     1.25400
C937        C  0.57337256  0.36766158  0.70649983     0.89600
C938        C  0.50071130  0.46149462  0.83200066     0.89600
C939        C  0.56412650  0.47448226  0.73230059     0.89600
C940        C  0.50179116  0.33869351  0.81748818     0.89800
N941        N  0.62359398  0.52361814  0.71408986    -0.01600
C942        C  0.62647317  0.56737431  0.70439928     0.01000
C943        C  0.58472752  0.58611879  0.70823082    -0.21900
C944        C  0.55706580  0.55497368  0.71488491    -0.22100
C945        C  0.58159858  0.51677183  0.71862825     0.00900
H946        H  0.57336105  0.61890089  0.69852331     0.14700
H947        H  0.52266079  0.55998255  0.71701617     0.14700
N948        N  0.31002768  0.66548862  0.69737892    -0.01600
C949        C  0.65529567  0.64033955  0.65519958     0.01000
C950        C  0.64160216  0.66315936  0.60478196    -0.21900
C951        C  0.61003626  0.69306355  0.61700537    -0.22100
C952        C  0.60760660  0.68641629  0.67313225     0.00900
H953        H  0.64557154  0.65289689  0.56387687     0.14700
H954        H  0.58841020  0.71367185  0.58899187     0.14700
N955        N  0.47822437  0.49541093  0.85913999    -0.01600
C956        C  0.49703319  0.51483567  0.90164369     0.01000
C957        C  0.48297728  0.49437721  0.95002977    -0.21900
C958        C  0.44906493  0.47199052  0.93594929    -0.22100
C959        C  0.44281779  0.47968814  0.87957889     0.00900
H960        H  0.48975800  0.50231844  0.99125332     0.14700
H961        H  0.42925461  0.45500855  0.96358533     0.14700
N962        N  0.47481673  0.63971207  0.84282650    -0.01600
C963        C  0.47834265  0.59459000  0.85017235     0.01000
C964        C  0.43748516  0.58259846  0.83870262    -0.21900
C965        C  0.40888877  0.61681536  0.83659902    -0.22100
C966        C  0.43187451  0.65054519  0.83848088     0.00900
H967        H  0.42583467  0.55230604  0.84043325     0.14700
H968        H  0.37440634  0.61723423  0.83229506     0.14700
C969        C  0.65404382  0.58878295  0.65808098    -0.00600
O970        O  0.44742485  0.38575989  0.52447868    -0.72500
O971        O  0.54485199  0.64462493  0.59812026    -0.72600
O972        O  0.53967776  0.37317383  0.51766809    -0.72600
O973        O  0.46137797  0.66074100  0.61195552    -0.72700
O974        O  0.45766894  0.61327867  0.55117673    -0.72600
O975        O  0.52119805  0.67566114  0.44365647    -0.72600
O976        O  0.54246885  0.61375176  0.52049008    -0.72600
O977        O  0.43352373  0.67346983  0.46530522    -0.72600
Ni978      Ni  0.49865683  0.68554381  0.56446074     1.25400
Ni979      Ni  0.48809455  0.64190676  0.49286528     1.25400
C980        C  0.42116589  0.37405228  0.48681798     0.89600
C981        C  0.55967882  0.61567070  0.56861682     0.89600
C982        C  0.54461539  0.36700312  0.46762227     0.89600
C983        C  0.44890381  0.62641848  0.59859603     0.89800
O984        O  0.41509355  0.49718340  0.46664975    -0.72500
O985        O  0.50850731  0.54932423  0.52691579    -0.72600
O986        O  0.49860726  0.49662636  0.44955230    -0.72600
O987        O  0.41851876  0.55359129  0.53894912    -0.72700
O988        O  0.43803190  0.51029484  0.61469604    -0.72600
O989        O  0.50631611  0.44351448  0.51586706    -0.72600
O990        O  0.52262680  0.49570532  0.59243935    -0.72600
O991        O  0.42203638  0.45473353  0.54561936    -0.72600
Ni992      Ni  0.45967874  0.52676977  0.49350497     1.25400
Ni993      Ni  0.47256816  0.47384371  0.56960537     1.25400
C994        C  0.40457577  0.46588716  0.49810770     0.89600
C995        C  0.53323494  0.52910606  0.56636278     0.89600
C996        C  0.51499864  0.45930862  0.46680751     0.89600
C997        C  0.41562163  0.54361016  0.59073322     0.89800
N998        N  0.37918971  0.40027435  0.46869458    -0.01600
C999        C  0.33701015  0.38916633  0.46228386     0.01000
C1000       C  0.31135692  0.41665297  0.49115844    -0.21900
C1001       C  0.33178178  0.45168213  0.49529791    -0.22100
C1002       C  0.37221557  0.44107407  0.48155714     0.00900
H1003       H  0.61311973  0.41434208  0.50495523     0.14700
H1004       H  0.31974059  0.48134624  0.50926853     0.14700
N1005       N  0.56756865  0.39736394  0.43769224    -0.01600
C1006       C  0.59681962  0.39200000  0.39682752     0.01000
C1007       C  0.58262768  0.42466515  0.35586388    -0.21900
C1008       C  0.55263036  0.45286441  0.37676359    -0.22100
C1009       C  0.54481965  0.43627724  0.42831411     0.00900
H1010       H  0.59802123  0.43214151  0.31831783     0.14700
H1011       H  0.54012370  0.48402786  0.35891212     0.14700
N1012       N  0.39550677  0.57593966  0.62236093    -0.01600
C1013       C  0.36890986  0.57066764  0.66550311     0.01000
C1014       C  0.38910132  0.58373775  0.71200156    -0.21900
C1015       C  0.42144876  0.60717047  0.69380878    -0.22100
C1016       C  0.42311101  0.60286439  0.63797981     0.00900
H1017       H  0.37430858  0.58631563  0.75089085     0.14700
H1018       H  0.43934185  0.29410225  0.71758188     0.14700
N1019       N  0.58849049  0.57903099  0.59066717    -0.01600
C1020       C  0.63227001  0.57320894  0.60480924     0.01000
C1021       C  0.64579466  0.53104431  0.59581367    -0.21900
C1022       C  0.61085933  0.51045174  0.58445492    -0.22100
C1023       C  0.57682508  0.54042070  0.57952503     0.00900
H1024       H  0.67633057  0.51353964  0.60762116     0.14700
H1025       H  0.61006953  0.47657698  0.58209271     0.14700
O1026       O  0.61734361  0.50689228  0.35673619    -0.72500
O1027       O  0.55208451  0.60722461  0.27345257    -0.72600
O1028       O  0.55799637  0.51740731  0.27290687    -0.72600
O1029       O  0.61306577  0.59657455  0.35443941    -0.72700
O1030       O  0.64869759  0.60719045  0.27853117    -0.72600
O1031       O  0.60626872  0.51637049  0.20939765    -0.72600
O1032       O  0.59083508  0.60288647  0.19956439    -0.72600
O1033       O  0.66283222  0.51368779  0.29160608    -0.72600
Ni1034     Ni  0.58288089  0.55718552  0.31655774     1.25400
Ni1035     Ni  0.62961760  0.56047147  0.24318923     1.25400
C1036       C  0.65110178  0.49124867  0.33502084     0.89600
C1037       C  0.55807718  0.61938489  0.22237109     0.89600
C1038       C  0.57482723  0.50092415  0.23173224     0.89600
C1039       C  0.64034270  0.61624707  0.32714054     0.89800
O1040       O  0.44041613  0.49812134  0.35619556    -0.72500
O1041       O  0.49268937  0.57031243  0.25185365    -0.72600
O1042       O  0.44109077  0.58102819  0.33811891    -0.72600
O1043       O  0.49397389  0.48287024  0.27847904    -0.72700
O1044       O  0.45548141  0.49402918  0.19987319    -0.72600
O1045       O  0.38576771  0.57482650  0.28159984    -0.72600
O1046       O  0.43674537  0.57906619  0.19252354    -0.72600
O1047       O  0.73416683  0.48945996  0.28114772    -0.72600
Ni1048     Ni  0.46985007  0.53344822  0.30794395     1.25400
Ni1049     Ni  0.41695858  0.53444468  0.23640615     1.25400
C1050       C  0.41012715  0.48196221  0.33238889     0.89600
C1051       C  0.47385787  0.58739977  0.20625022     0.89600
C1052       C  0.40149676  0.59025056  0.32497829     0.89600
C1053       C  0.48751686  0.47394577  0.22908643     0.89800
N1054       N  0.66963011  0.64031790  0.35432273    -0.01600
C1055       C  0.66032694  0.32727068  0.40155259     0.01000
C1056       C  0.35362008  0.30442666  0.44406012    -0.21900
C1057       C  0.38453340  0.61232834  0.42058458    -0.22100
C1058       C  0.37484528  0.61594270  0.36463819     0.00900
H1059       H  0.35541778  0.31021461  0.48726934     0.14700
H1060       H  0.41181947  0.59368226  0.44208314     0.14700
N1061       N  0.52239368  0.44864771  0.20607891    -0.01600
C1062       C  0.52762257  0.40557811  0.19778397     0.01000
C1063       C  0.57096923  0.39149253  0.20957313    -0.21900
C1064       C  0.59274366  0.42582669  0.21609412    -0.22100
C1065       C  0.56267151  0.45994914  0.21504791     0.00900
H1066       H  0.58740094  0.36097363  0.20356412     0.14700
H1067       H  0.62701609  0.42559785  0.22315230     0.14700
N1068       N  0.67810424  0.45086206  0.36009434    -0.01600
C1069       C  0.67148743  0.40720117  0.35884086     0.01000
C1070       C  0.37539640  0.38651965  0.34150503    -0.21900
C1071       C  0.40745155  0.41030484  0.34951720    -0.22100
C1072       C  0.38857502  0.44927609  0.35869922     0.00900
H1073       H  0.38083244  0.35677346  0.32460079     0.14700
H1074       H  0.44006194  0.40264998  0.33802840     0.14700
N1075       N  0.52281832  0.64322736  0.18821426    -0.01600
C1076       C  0.52595711  0.33960822  0.14360176     0.01000
C1077       C  0.51130141  0.32322062  0.09607997    -0.21900
C1078       C  0.48843104  0.62330848  0.11296906    -0.22100
C1079       C  0.49482718  0.61745114  0.16966464     0.00900
H1080       H  0.50795698  0.34045744  0.05549446     0.14700
H1081       H  0.46764911  0.60694332  0.08736700     0.14700
C1082       C  0.64852106  0.37827980  0.40474311    -0.00600
O1083       O  0.63793724  0.46711901  0.03279520    -0.72500
O1084       O  0.38728751  0.53187704  0.95656574    -0.70200
O1085       O  0.39100580  0.47065975  0.04356381    -0.72600
O1086       O  0.63207612  0.52533626  0.94937797    -0.72700
O1087       O  0.63572713  0.57314027  0.00905905    -0.72600
O1088       O  0.37136158  0.50311387  0.11657455    -0.72600
O1089       O  0.39386987  0.56037272  0.03520147    -0.72600
O1090       O  0.62190228  0.51745626  0.08766483    -0.72600
Ni1091     Ni  0.34641271  0.49648012  0.99310301     1.25400
Ni1092     Ni  0.33940381  0.54153781  0.06402735     1.25400
C1093       C  0.61300368  0.48334211  0.06748321     0.89600
C1094       C  0.40708459  0.55621219  0.98589573     0.89600
C1095       C  0.38953198  0.47153220  0.09594320     0.89600
C1096       C  0.61584851  0.55883019  0.96856499     0.89800
O1097       O  0.36923981  0.40182243  0.03606032    -0.72500
O1098       O  0.62708472  0.68544106  0.93702196    -0.72600
O1099       O  0.60989262  0.40316695  0.01687959    -0.72600
O1100       O  0.37616656  0.68584524  0.95849258    -0.72700
O1101       O  0.36648102  0.63149782  0.01924883    -0.72600
O1102       O  0.61703599  0.69444320  0.09544690    -0.72600
O1103       O  0.61319414  0.64444728  0.01140894    -0.72600
O1104       O  0.37475507  0.68081856  0.10017514    -0.72600
Ni1105     Ni  0.32829185  0.38058849  0.98540248     1.25400
Ni1106     Ni  0.32578068  0.66059458  0.05921100     1.25400
C1107       C  0.39025616  0.38114940  0.07897595     0.89600
C1108       C  0.61092758  0.65285136  0.95824326     0.89600
C1109       C  0.59744676  0.39272981  0.06555979     0.89600
C1110       C  0.38699967  0.64847836  0.98057049     0.89800
N1111       N  0.56628386  0.42193857  0.08772419    -0.01600
C1112       C  0.52339891  0.41779721  0.09743610     0.01000
C1113       C  0.50357985  0.45954362  0.09067723    -0.21900
C1114       C  0.53388884  0.48795575  0.08323926    -0.22100
C1115       C  0.57214839  0.46421789  0.08103806     0.00900
H1116       H  0.47171702  0.46997084  0.10006143     0.14700
H1117       H  0.52826491  0.52236408  0.07967575     0.14700
N1118       N  0.43694053  0.58604081  0.96155730    -0.01600
C1119       C  0.48136557  0.58296348  0.95360738     0.01000
C1120       C  0.49565801  0.62122138  0.96781255    -0.21900
C1121       C  0.46197591  0.64975739  0.97137944    -0.22100
C1122       C  0.42735350  0.62792968  0.96775119     0.00900
H1123       H  0.52643316  0.63201207  0.96897581     0.14700
H1124       H  0.46263838  0.34970315  0.97803296     0.14700
N1125       N  0.42626000  0.40103160  0.10633805    -0.01600
C1126       C  0.45612740  0.38441589  0.14855930     0.01000
C1127       C  0.43872215  0.39248571  0.19882115    -0.21900
C1128       C  0.40766120  0.42561260  0.18638273    -0.22100
C1129       C  0.40782093  0.43395835  0.13005545     0.00900
H1130       H  0.45349182  0.38348212  0.23984220     0.14700
H1131       H  0.39007715  0.44374560  0.21454435     0.14700
N1132       N  0.57909897  0.58463199  0.94109401    -0.01600
C1133       C  0.55411881  0.57157868  0.89863926     0.01000
C1134       C  0.56820058  0.59219645  0.85034856    -0.21900
C1135       C  0.59239863  0.62408504  0.86513239    -0.22100
C1136       C  0.59233161  0.62242758  0.92172391     0.00900
H1137       H  0.55501688  0.59071997  0.80904337     0.14700
H1138       H  0.60586380  0.31420851  0.83800550     0.14700
C1139       C  0.50743384  0.38687088  0.14612067    -0.00600
C1140       C  0.50360473  0.56518343  0.90089498    -0.00600
O1141       O  0.31651771  0.71518258  0.76708642    -0.72500
O1142       O  0.37726711  0.78022756  0.86572451    -0.72600
O1143       O  0.31688945  0.80580523  0.78548937    -0.72600
O1144       O  0.37427942  0.70056170  0.84586580    -0.72700
O1145       O  0.42263664  0.71675540  0.78586853    -0.72600
O1146       O  0.35026833  0.80654798  0.70698898    -0.72600
O1147       O  0.40953023  0.80230312  0.79088273    -0.72600
O1148       O  0.36450405  0.71630911  0.70376684    -0.72600
Ni1149     Ni  0.34310833  0.75090454  0.81770660     1.25400
Ni1150     Ni  0.38867290  0.76111663  0.74423842     1.25400
C1151       C  0.33287310  0.69860384  0.72468278     0.89600
C1152       C  0.40748567  0.79874192  0.84399011     0.89600
C1153       C  0.32204471  0.82333744  0.73668366     0.89600
C1154       C  0.40974252  0.69218622  0.82466695     0.89800
O1155       O  0.53928458  0.72136843  0.68543992    -0.72500
O1156       O  0.48130673  0.77895871  0.79232190    -0.72600
O1157       O  0.52740029  0.80092433  0.71264595    -0.72600
O1158       O  0.49157257  0.69022575  0.76794870    -0.72700
O1159       O  0.52951521  0.68905212  0.84627078    -0.72600
O1160       O  0.58482937  0.77921974  0.76673617    -0.72600
O1161       O  0.53672716  0.77666890  0.85108412    -0.72600
O1162       O  0.58007347  0.69413313  0.75882889    -0.72600
Ni1163     Ni  0.50653523  0.74766246  0.73767739     1.25400
Ni1164     Ni  0.56036474  0.73359233  0.80817586     1.25400
C1165       C  0.57337269  0.70099579  0.70650019     0.89600
C1166       C  0.50071118  0.79482915  0.83200135     0.89600
C1167       C  0.56412667  0.80781636  0.73230117     0.89600
C1168       C  0.50178985  0.67202768  0.81748705     0.89800
N1169       N  0.62359469  0.85695153  0.71409017    -0.01600
C1170       C  0.62647503  0.90070746  0.70440124     0.01000
C1171       C  0.58472962  0.91945255  0.70823350    -0.21900
C1172       C  0.55706723  0.88830801  0.71488700    -0.22100
C1173       C  0.58159919  0.85010580  0.71862886     0.00900
H1174       H  0.57336359  0.95223530  0.69852781     0.14700
H1175       H  0.52266182  0.89331741  0.71701887     0.14700
N1176       N  0.31003201  0.99882139  0.69738200    -0.01600
C1177       C  0.65529923  0.97367220  0.65520247     0.01000
C1178       C  0.64160465  0.99649192  0.60478500    -0.21900
C1179       C  0.61003890  0.02639596  0.61700969    -0.22100
C1180       C  0.60761032  0.01974860  0.67313640     0.00900
H1181       H  0.64557385  0.98623026  0.56388054     0.14700
H1182       H  0.58841194  0.04700423  0.58899741     0.14700
N1183       N  0.47822481  0.82874587  0.85914097    -0.01600
C1184       C  0.49703408  0.84816946  0.90164586     0.01000
C1185       C  0.48297746  0.82771052  0.95003096    -0.21900
C1186       C  0.44906397  0.80532568  0.93594936    -0.22100
C1187       C  0.44281739  0.81302408  0.87957890     0.00900
H1188       H  0.48975828  0.83565033  0.99125485     0.14700
H1189       H  0.42925303  0.78834529  0.96358430     0.14700
N1190       N  0.47482075  0.97304725  0.84283535    -0.01600
C1191       C  0.47834528  0.92792528  0.85017887     0.01000
C1192       C  0.43748783  0.91593487  0.83870705    -0.21900
C1193       C  0.40889211  0.95015231  0.83660373    -0.22100
C1194       C  0.43187859  0.98388153  0.83848795     0.00900
H1195       H  0.42583695  0.88564365  0.84043535     0.14700
H1196       H  0.37441033  0.95057179  0.83229742     0.14700
C1197       C  0.65404748  0.92211547  0.65808440    -0.00600
O1198       O  0.44742703  0.71909419  0.52447980    -0.72500
O1199       O  0.54485660  0.97795522  0.59812621    -0.72600
O1200       O  0.53968026  0.70650757  0.51766938    -0.72600
O1201       O  0.46138296  0.99407235  0.61196247    -0.72700
O1202       O  0.45767595  0.94660802  0.55118625    -0.72600
O1203       O  0.52120146  0.00899045  0.44366134    -0.72600
O1204       O  0.54247470  0.94708294  0.52049541    -0.72600
O1205       O  0.43352750  0.00679580  0.46531359    -0.72600
Ni1206     Ni  0.49866180  0.01887399  0.56446614     1.25400
Ni1207     Ni  0.48809957  0.97523561  0.49287240     1.25400
C1208       C  0.42116796  0.70738693  0.48681895     0.89600
C1209       C  0.55968392  0.94900157  0.56862226     0.89600
C1210       C  0.54461780  0.70033710  0.46762341     0.89600
C1211       C  0.44890968  0.95974905  0.59860441     0.89800
O1212       O  0.41509778  0.83051881  0.46665101    -0.72500
O1213       O  0.50851227  0.88265640  0.52692084    -0.72600
O1214       O  0.49861169  0.82996129  0.44955457    -0.72600
O1215       O  0.41852307  0.88692395  0.53895452    -0.72700
O1216       O  0.43803719  0.84362642  0.61470005    -0.72600
O1217       O  0.50631909  0.77684798  0.51586724    -0.72600
O1218       O  0.52263207  0.82903576  0.59244189    -0.72600
O1219       O  0.42203964  0.78806811  0.54561977    -0.72600
Ni1220     Ni  0.45968326  0.86010379  0.49350860     1.25400
Ni1221     Ni  0.47257231  0.80717616  0.56960705     1.25400
C1222       C  0.40457954  0.79922222  0.49810788     0.89600
C1223       C  0.53324027  0.86243701  0.56636655     0.89600
C1224       C  0.51500210  0.79264293  0.46680844     0.89600
C1225       C  0.41562656  0.87694206  0.59073867     0.89800
N1226       N  0.37919183  0.73360926  0.46869644    -0.01600
C1227       C  0.33701204  0.72250157  0.46228584     0.01000
C1228       C  0.31135906  0.74999082  0.49115721    -0.21900
C1229       C  0.33178448  0.78501980  0.49529454    -0.22100
C1230       C  0.37221867  0.77440984  0.48155646     0.00900
H1231       H  0.61312094  0.74768058  0.50495450     0.14700
H1232       H  0.31974333  0.81468534  0.50926350     0.14700
N1233       N  0.56757101  0.73069792  0.43769328    -0.01600
C1234       C  0.59682244  0.72533393  0.39682918     0.01000
C1235       C  0.58263154  0.75799900  0.35586516    -0.21900
C1236       C  0.55263411  0.78619867  0.37676461    -0.22100
C1237       C  0.54482249  0.76961138  0.42831477     0.00900
H1238       H  0.59802485  0.76547430  0.31832013     0.14700
H1239       H  0.54012783  0.81736165  0.35891308     0.14700
N1240       N  0.39551196  0.90927103  0.62236776    -0.01600
C1241       C  0.36891348  0.90399973  0.66550860     0.01000
C1242       C  0.38910348  0.91707045  0.71200780    -0.21900
C1243       C  0.42145159  0.94050278  0.69381615    -0.22100
C1244       C  0.42311601  0.93619562  0.63798771     0.00900
H1245       H  0.37430988  0.91964888  0.75089577     0.14700
H1246       H  0.43934467  0.62743222  0.71758299     0.14700
N1247       N  0.58849547  0.91236205  0.59067163    -0.01600
C1248       C  0.63227486  0.90654097  0.60481270     0.01000
C1249       C  0.64580038  0.86437668  0.59581611    -0.21900
C1250       C  0.61086524  0.84378338  0.58445738    -0.22100
C1251       C  0.57683041  0.87375182  0.57952896     0.00900
H1252       H  0.67633584  0.84687275  0.60762168     0.14700
H1253       H  0.61007650  0.80990977  0.58209421     0.14700
O1254       O  0.61734995  0.84022263  0.35673510    -0.72500
O1255       O  0.55208884  0.94055425  0.27345402    -0.72600
O1256       O  0.55800161  0.85073631  0.27290735    -0.72600
O1257       O  0.61307186  0.92990488  0.35443739    -0.72700
O1258       O  0.64870214  0.94052079  0.27852786    -0.72600
O1259       O  0.60627214  0.84969990  0.20939615    -0.72600
O1260       O  0.59083721  0.93621675  0.19956381    -0.72600
O1261       O  0.66283696  0.84701700  0.29160276    -0.72600
Ni1262     Ni  0.58288652  0.89051525  0.31655732     1.25400
Ni1263     Ni  0.62962136  0.89380133  0.24318685     1.25400
C1264       C  0.65110726  0.82457849  0.33501864     0.89600
C1265       C  0.55808026  0.95271554  0.22237255     0.89600
C1266       C  0.57483169  0.83425288  0.23173238     0.89600
C1267       C  0.64034777  0.94957800  0.32713723     0.89800
O1268       O  0.44042159  0.83145000  0.35619523    -0.72500
O1269       O  0.49269384  0.90364212  0.25185389    -0.72600
O1270       O  0.44109429  0.91435687  0.33811884    -0.72600
O1271       O  0.49397868  0.81620001  0.27847878    -0.72700
O1272       O  0.45548579  0.82735811  0.19987304    -0.72600
O1273       O  0.38577194  0.90815518  0.28159835    -0.72600
O1274       O  0.43675014  0.91239488  0.19252305    -0.72600
O1275       O  0.73417197  0.82278891  0.28114745    -0.72600
Ni1276     Ni  0.46985468  0.86677742  0.30794377     1.25400
Ni1277     Ni  0.41696330  0.86777344  0.23640559     1.25400
C1278       C  0.41013270  0.81529095  0.33238844     0.89600
C1279       C  0.47386213  0.92072967  0.20625073     0.89600
C1280       C  0.40150044  0.92357926  0.32497704     0.89600
C1281       C  0.48752134  0.80727539  0.22908644     0.89800
N1282       N  0.66963512  0.97364970  0.35431839    -0.01600
C1283       C  0.66032688  0.66060311  0.40155757     0.01000
C1284       C  0.35362177  0.63776026  0.44406423    -0.21900
C1285       C  0.38453398  0.94565390  0.42058353    -0.22100
C1286       C  0.37484822  0.94927105  0.36463631     0.00900
H1287       H  0.35542250  0.64355050  0.48727140     0.14700
H1288       H  0.41181765  0.92700548  0.44208277     0.14700
N1289       N  0.52239758  0.78197696  0.20607952    -0.01600
C1290       C  0.52762480  0.73890787  0.19778303     0.01000
C1291       C  0.57097145  0.72482108  0.20957090    -0.21900
C1292       C  0.59274688  0.75915428  0.21609434    -0.22100
C1293       C  0.56267560  0.79327749  0.21504888     0.00900
H1294       H  0.58740290  0.69430153  0.20355927     0.14700
H1295       H  0.62701958  0.75892482  0.22315210     0.14700
N1296       N  0.67810939  0.78419196  0.36009242    -0.01600
C1297       C  0.67149204  0.74053102  0.35884294     0.01000
C1298       C  0.37540252  0.71984739  0.34151262    -0.21900
C1299       C  0.40745721  0.74363378  0.34952189    -0.22100
C1300       C  0.38858017  0.78260568  0.35869880     0.00900
H1301       H  0.38084033  0.69009980  0.32461707     0.14700
H1302       H  0.44006873  0.73597740  0.33803627     0.14700
N1303       N  0.52282064  0.97655952  0.18821841    -0.01600
C1304       C  0.52595368  0.67293976  0.14360104     0.01000
C1305       C  0.51129697  0.65655229  0.09607979    -0.21900
C1306       C  0.48843402  0.95664240  0.11297156    -0.22100
C1307       C  0.49483036  0.95078308  0.16966678     0.00900
H1308       H  0.50795229  0.67378954  0.05549327     0.14700
H1309       H  0.46765234  0.94027698  0.08736759     0.14700
C1310       C  0.64852339  0.71161268  0.40474589    -0.00600
O1311       O  0.63793600  0.80045276  0.03280015    -0.72500
O1312       O  0.38728724  0.86521045  0.95657257    -0.70200
O1313       O  0.39100421  0.80399273  0.04356976    -0.72600
O1314       O  0.63207617  0.85867044  0.94938407    -0.72700
O1315       O  0.63572702  0.90647418  0.00906544    -0.72600
O1316       O  0.37135969  0.83644613  0.11658099    -0.72600
O1317       O  0.39386996  0.89370561  0.03520872    -0.72600
O1318       O  0.62190021  0.85078978  0.08766979    -0.72600
Ni1319     Ni  0.34641183  0.82981382  0.99310903     1.25400
Ni1320     Ni  0.33940291  0.87487097  0.06403376     1.25400
C1321       C  0.61300194  0.81667554  0.06748787     0.89600
C1322       C  0.40708494  0.88954504  0.98590282     0.89600
C1323       C  0.38952985  0.80486454  0.09594916     0.89600
C1324       C  0.61584877  0.89216439  0.96857093     0.89800
O1325       O  0.36923907  0.73515560  0.03606179    -0.72500
O1326       O  0.62708689  0.01877445  0.93702715    -0.72600
O1327       O  0.60989169  0.73650121  0.01688084    -0.72600
O1328       O  0.37616867  0.01917894  0.95849982    -0.72700
O1329       O  0.36648171  0.96483090  0.01925428    -0.72600
O1330       O  0.61703692  0.02777615  0.09545357    -0.72600
O1331       O  0.61319479  0.97778137  0.01141383    -0.72600
O1332       O  0.37475630  0.01415109  0.10018162    -0.72600
Ni1333     Ni  0.32829056  0.71392239  0.98540366     1.25400
Ni1334     Ni  0.32578164  0.99392764  0.05921687     1.25400
C1335       C  0.39025451  0.71448263  0.07897815     0.89600
C1336       C  0.61092903  0.98618511  0.95824814     0.89600
C1337       C  0.59744493  0.72606327  0.06556031     0.89600
C1338       C  0.38700114  0.98181161  0.98057691     0.89800
N1339       N  0.56628182  0.75527150  0.08772491    -0.01600
C1340       C  0.52339691  0.75112933  0.09743617     0.01000
C1341       C  0.50357766  0.79287548  0.09067843    -0.21900
C1342       C  0.53388640  0.82128823  0.08324252    -0.22100
C1343       C  0.57214637  0.79755084  0.08104120     0.00900
H1344       H  0.47171355  0.80330242  0.10006154     0.14700
H1345       H  0.52826230  0.85569560  0.07968049     0.14700
N1346       N  0.43694161  0.91937320  0.96156409    -0.01600
C1347       C  0.48136696  0.91629584  0.95361385     0.01000
C1348       C  0.49565943  0.95455331  0.96782004    -0.21900
C1349       C  0.46197762  0.98308962  0.97138677    -0.22100
C1350       C  0.42735495  0.96126209  0.96775794     0.00900
H1351       H  0.52643606  0.96534476  0.96898337     0.14700
H1352       H  0.46263725  0.68303935  0.97803061     0.14700
N1353       N  0.42625818  0.73436457  0.10634122    -0.01600
C1354       C  0.45612639  0.71774866  0.14856155     0.01000
C1355       C  0.43872244  0.72581784  0.19882420    -0.21900
C1356       C  0.40766014  0.75894344  0.18638748    -0.22100
C1357       C  0.40781873  0.76729024  0.13006028     0.00900
H1358       H  0.45349337  0.71681359  0.23984584     0.14700
H1359       H  0.39007518  0.77707495  0.21454991     0.14700
N1360       N  0.57909977  0.91796622  0.94109945    -0.01600
C1361       C  0.55412021  0.90491226  0.89864491     0.01000
C1362       C  0.56820314  0.92552883  0.85035387    -0.21900
C1363       C  0.59240142  0.95741752  0.86513730    -0.22100
C1364       C  0.59233314  0.95576132  0.92172870     0.00900
H1365       H  0.55502052  0.92405147  0.80904962     0.14700
H1366       H  0.60586309  0.64754432  0.83800459     0.14700
C1367       C  0.50743274  0.72020257  0.14612065    -0.00600
C1368       C  0.50360617  0.89851706  0.90090028    -0.00600
O1369       O  0.64985502  0.04851661  0.76708757    -0.72500
O1370       O  0.71060129  0.11356475  0.86572352    -0.72600
O1371       O  0.65022419  0.13914030  0.78548698    -0.72600
O1372       O  0.70761697  0.03389895  0.84586830    -0.72700
O1373       O  0.75597423  0.05009027  0.78586951    -0.72600
O1374       O  0.68360417  0.13988247  0.70698753    -0.72600
O1375       O  0.74286689  0.13563795  0.79088251    -0.72600
O1376       O  0.69784114  0.04964291  0.70376791    -0.72600
Ni1377     Ni  0.67644438  0.08424034  0.81770626     1.25400
Ni1378     Ni  0.72200970  0.09445124  0.74423836     1.25400
C1379       C  0.66621050  0.03193740  0.72468453     0.89600
C1380       C  0.74082113  0.13207719  0.84398989     0.89600
C1381       C  0.65537936  0.15667191  0.73668088     0.89600
C1382       C  0.74308030  0.02552268  0.82467016     0.89800
O1383       O  0.87262148  0.05470002  0.68544492    -0.72500
O1384       O  0.81464277  0.11228669  0.79232863    -0.72600
O1385       O  0.86073381  0.13425578  0.71264991    -0.72600
O1386       O  0.82491105  0.02355647  0.76795482    -0.72700
O1387       O  0.86285339  0.02238679  0.84627668    -0.72600
O1388       O  0.91816608  0.11255192  0.76673402    -0.72600
O1389       O  0.87006604  0.11000384  0.85108446    -0.72600
O1390       O  0.91341118  0.02746487  0.75883335    -0.72600
Ni1391     Ni  0.83987164  0.08099286  0.73768281     1.25400
Ni1392     Ni  0.89370295  0.06692569  0.80817834     1.25400
C1393       C  0.90670984  0.03432743  0.70650475     0.89600
C1394       C  0.83404803  0.12816051  0.83200431     0.89600
C1395       C  0.89746132  0.14114821  0.73230061     0.89600
C1396       C  0.83512787  0.00536109  0.81749423     0.89800
N1397       N  0.95692785  0.19028467  0.71408554    -0.01600
C1398       C  0.95980605  0.23404098  0.70439494     0.01000
C1399       C  0.91806028  0.25278503  0.70822678    -0.21900
C1400       C  0.89039935  0.22163941  0.71488193    -0.22100
C1401       C  0.91493261  0.18343778  0.71862535     0.00900
H1402       H  0.90669326  0.28556694  0.69851970     0.14700
H1403       H  0.85599412  0.22664800  0.71701430     0.14700
N1404       N  0.64336096  0.33215538  0.69737638    -0.01600
C1405       C  0.98862870  0.30700673  0.65519666     0.01000
C1406       C  0.97493377  0.32982672  0.60477939    -0.21900
C1407       C  0.94336756  0.35973020  0.61700425    -0.22100
C1408       C  0.94093920  0.35308259  0.67313108     0.00900
H1409       H  0.97890269  0.31956527  0.56387545     0.14700
H1410       H  0.92174057  0.38033830  0.58899123     0.14700
N1411       N  0.81156110  0.16207724  0.85914263    -0.01600
C1412       C  0.83036936  0.18150150  0.90164687     0.01000
C1413       C  0.81631237  0.16104299  0.95003215    -0.21900
C1414       C  0.78239909  0.13865817  0.93595049    -0.22100
C1415       C  0.77615330  0.14635645  0.87958004     0.00900
H1416       H  0.82309338  0.16898342  0.99125768     0.14700
H1417       H  0.76258639  0.12167831  0.96358549     0.14700
N1418       N  0.80815176  0.30637799  0.84282838    -0.01600
C1419       C  0.81167838  0.26125594  0.85017445     0.01000
C1420       C  0.77082151  0.24926385  0.83870218    -0.21900
C1421       C  0.74222429  0.28348020  0.83659797    -0.22100
C1422       C  0.76520931  0.31721047  0.83848051     0.00900
H1423       H  0.75917192  0.21897298  0.84042967     0.14700
H1424       H  0.70774238  0.28389801  0.83229316     0.14700
C1425       C  0.98737744  0.25545000  0.65807788    -0.00600
O1426       O  0.78076544  0.05242288  0.52448416    -0.72500
O1427       O  0.87818417  0.31129096  0.59811828    -0.72600
O1428       O  0.87301851  0.03983714  0.51767337    -0.72600
O1429       O  0.79471004  0.32740676  0.61195437    -0.72700
O1430       O  0.79100167  0.27994379  0.55117630    -0.72600
O1431       O  0.85452895  0.34232726  0.44365520    -0.72600
O1432       O  0.87580111  0.28041777  0.52048823    -0.72600
O1433       O  0.76685514  0.34013487  0.46530505    -0.72600
Ni1434     Ni  0.83198837  0.35220969  0.56445944     1.25400
Ni1435     Ni  0.82142634  0.30857231  0.49286440     1.25400
C1436       C  0.75450567  0.04071377  0.48682549     0.89600
C1437       C  0.89301169  0.28233722  0.56861441     0.89600
C1438       C  0.87795547  0.03366633  0.46762731     0.89600
C1439       C  0.78223671  0.29308378  0.59859550     0.89800
O1440       O  0.74843180  0.16384376  0.46665441    -0.72500
O1441       O  0.84184290  0.21598863  0.52691706    -0.72600
O1442       O  0.83194547  0.16328874  0.44955594    -0.72600
O1443       O  0.75185502  0.22025342  0.53895104    -0.72700
O1444       O  0.77136982  0.17695941  0.61469958    -0.72600
O1445       O  0.83965596  0.11017796  0.51587212    -0.72600
O1446       O  0.85596472  0.16237107  0.59244229    -0.72600
O1447       O  0.75537570  0.12139592  0.54562572    -0.72600
Ni1448     Ni  0.79301579  0.19343192  0.49350781     1.25400
Ni1449     Ni  0.80590702  0.14050767  0.56961001     1.25400
C1450       C  0.73791453  0.13254832  0.49811408     0.89600
C1451       C  0.86657131  0.19577168  0.56636389     0.89600
C1452       C  0.84833807  0.12597166  0.46681196     0.89600
C1453       C  0.74895837  0.21027376  0.59073560     0.89800
N1454       N  0.71252911  0.06693497  0.46870341    -0.01600
C1455       C  0.67035003  0.05582602  0.46229200     0.01000
C1456       C  0.64469653  0.08331213  0.49116703    -0.21900
C1457       C  0.66512060  0.11834183  0.49530613    -0.22100
C1458       C  0.70555446  0.10773452  0.48156529     0.00900
H1459       H  0.94645838  0.08100032  0.50496356     0.14700
H1460       H  0.65307913  0.14800624  0.50927542     0.14700
N1461       N  0.90090840  0.06402743  0.43769602    -0.01600
C1462       C  0.93016105  0.05866481  0.39683243     0.01000
C1463       C  0.91597121  0.09133086  0.35586968    -0.21900
C1464       C  0.88597247  0.11952931  0.37676863    -0.22100
C1465       C  0.87815984  0.10294101  0.42831834     0.00900
H1466       H  0.93136623  0.09880684  0.31832485     0.14700
H1467       H  0.87346536  0.15069341  0.35891638     0.14700
N1468       N  0.72884178  0.24260395  0.62236151    -0.01600
C1469       C  0.70224331  0.23733388  0.66550251     0.01000
C1470       C  0.72243322  0.25040562  0.71200090    -0.21900
C1471       C  0.75478046  0.27383836  0.69380817    -0.22100
C1472       C  0.75644472  0.26952992  0.63797997     0.00900
H1473       H  0.70763851  0.25298519  0.75088973     0.14700
H1474       H  0.77268043  0.96076538  0.71759147     0.14700
N1475       N  0.92182506  0.24569823  0.59066388    -0.01600
C1476       C  0.96560457  0.23987670  0.60480548     0.01000
C1477       C  0.97913016  0.19771234  0.59580946    -0.21900
C1478       C  0.94419517  0.17711903  0.58445250    -0.22100
C1479       C  0.91016069  0.20708753  0.57952315     0.00900
H1480       H  0.00966562  0.18020790  0.60761693     0.14700
H1481       H  0.94340559  0.14324469  0.58209227     0.14700
O1482       O  0.95068318  0.17355843  0.35673659    -0.72500
O1483       O  0.88542372  0.27389092  0.27345183    -0.72600
O1484       O  0.89133493  0.18407263  0.27290902    -0.72600
O1485       O  0.94640518  0.26324087  0.35443685    -0.72700
O1486       O  0.98203615  0.27385515  0.27852776    -0.72600
O1487       O  0.93960497  0.18303455  0.20939709    -0.72600
O1488       O  0.92417260  0.26955161  0.19956228    -0.72600
O1489       O  0.99616949  0.18035103  0.29160337    -0.72600
Ni1490     Ni  0.91622018  0.22385151  0.31655737     1.25400
Ni1491     Ni  0.96295513  0.22713573  0.24318691     1.25400
C1492       C  0.98444019  0.15791314  0.33502010     0.89600
C1493       C  0.89141562  0.28605122  0.22236996     0.89600
C1494       C  0.90816460  0.16758832  0.23173453     0.89600
C1495       C  0.97368128  0.28291326  0.32713665     0.89800
O1496       O  0.77375481  0.16479500  0.35619952    -0.72500
O1497       O  0.82602861  0.23697974  0.25185191    -0.72600
O1498       O  0.77442986  0.24770097  0.33811618    -0.72600
O1499       O  0.82731136  0.14953870  0.27848338    -0.72700
O1500       O  0.78881912  0.16069580  0.19987715    -0.72600
O1501       O  0.71910675  0.24149585  0.28159915    -0.72600
O1502       O  0.77008391  0.24573306  0.19252292    -0.72600
O1503       O  0.06750607  0.15612957  0.28115307    -0.72600
Ni1504     Ni  0.80318889  0.20011881  0.30794484     1.25400
Ni1505     Ni  0.75029725  0.20111272  0.23640809     1.25400
C1506       C  0.74346580  0.14863473  0.33239464     0.89600
C1507       C  0.80719658  0.25406677  0.20624886     0.89600
C1508       C  0.73483558  0.25692204  0.32497580     0.89600
C1509       C  0.82085397  0.14061266  0.22909139     0.89800
N1510       N  0.00296666  0.30698718  0.35431732    -0.01600
C1511       C  0.99366457  0.99393322  0.40155490     0.01000
C1512       C  0.68695624  0.97108684  0.44406233    -0.21900
C1513       C  0.71786731  0.27899678  0.42058168    -0.22100
C1514       C  0.70818282  0.28261433  0.36463414     0.00900
H1515       H  0.68875527  0.97687455  0.48727039     0.14700
H1516       H  0.74515164  0.26034953  0.44208176     0.14700
N1517       N  0.85572970  0.11531276  0.20608496    -0.01600
C1518       C  0.86095651  0.07224315  0.19779076     0.01000
C1519       C  0.90430271  0.05815573  0.20958061    -0.21900
C1520       C  0.92607877  0.09248911  0.21610122    -0.22100
C1521       C  0.89600799  0.12661282  0.21505331     0.00900
H1522       H  0.92073285  0.02763687  0.20357201     0.14700
H1523       H  0.96035132  0.09225897  0.22315901     0.14700
N1524       N  0.01144462  0.11752823  0.36009671    -0.01600
C1525       C  0.00483453  0.07386405  0.35885154     0.01000
C1526       C  0.70875264  0.05318320  0.34153601    -0.21900
C1527       C  0.74080055  0.07697795  0.34954226    -0.22100
C1528       C  0.72191549  0.11594866  0.35870794     0.00900
H1529       H  0.71420517  0.02342576  0.32466928     0.14700
H1530       H  0.77341600  0.06932406  0.33806828     0.14700
N1531       N  0.85615629  0.30989484  0.18821439    -0.01600
C1532       C  0.85928806  0.00627390  0.14360687     0.01000
C1533       C  0.84463157  0.98988764  0.09608458    -0.21900
C1534       C  0.82176958  0.28997608  0.11296847    -0.22100
C1535       C  0.82816562  0.28411848  0.16966385     0.00900
H1536       H  0.84128681  0.00712631  0.05549869     0.14700
H1537       H  0.80098810  0.27361137  0.08736620     0.14700
C1538       C  0.98186206  0.04494273  0.40474887    -0.00600
O1539       O  0.97127002  0.13378521  0.03280280    -0.72500
O1540       O  0.72062062  0.19854177  0.95657117    -0.70200
O1541       O  0.72433861  0.13732589  0.04357141    -0.72600
O1542       O  0.96540931  0.19200129  0.94938381    -0.72700
O1543       O  0.96906132  0.23980752  0.00906172    -0.72600
O1544       O  0.70469329  0.16978152  0.11658051    -0.72600
O1545       O  0.72720382  0.22703898  0.03520571    -0.72600
O1546       O  0.95523372  0.18412466  0.08766861    -0.72600
Ni1547     Ni  0.67974563  0.16314564  0.99310977     1.25400
Ni1548     Ni  0.67273667  0.20820526  0.06403158     1.25400
C1549       C  0.94633584  0.15000916  0.06748951     0.89600
C1550       C  0.74041842  0.22287732  0.98589989     0.89600
C1551       C  0.72286389  0.13819915  0.09595066     0.89600
C1552       C  0.94918268  0.22549664  0.96856842     0.89800
O1553       O  0.70257224  0.06848905  0.03606957    -0.72500
O1554       O  0.96041970  0.35210667  0.93702121    -0.72600
O1555       O  0.94322523  0.06983347  0.01688702    -0.72600
O1556       O  0.70950165  0.35251138  0.95849196    -0.72700
O1557       O  0.69981461  0.29816367  0.01924679    -0.72600
O1558       O  0.95037202  0.36111057  0.09544699    -0.72600
O1559       O  0.94652795  0.31111469  0.01140924    -0.72600
O1560       O  0.70809124  0.34748468  0.10017283    -0.72600
Ni1561     Ni  0.66162503  0.04725567  0.98541022     1.25400
Ni1562     Ni  0.65911572  0.32726120  0.05921013     1.25400
C1563       C  0.72358807  0.04781592  0.07898536     0.89600
C1564       C  0.94426167  0.31951787  0.95824347     0.89600
C1565       C  0.93077898  0.05939608  0.06556699     0.89600
C1566       C  0.72033390  0.31514408  0.98056912     0.89800
N1567       N  0.89961618  0.08860487  0.08773157    -0.01600
C1568       C  0.85673116  0.08446319  0.09744326     0.01000
C1569       C  0.83691189  0.12620939  0.09068353    -0.21900
C1570       C  0.86722069  0.15462187  0.08324536    -0.22100
C1571       C  0.90548057  0.13088434  0.08104507     0.00900
H1572       H  0.80504861  0.13663637  0.10006625     0.14700
H1573       H  0.86159664  0.18902980  0.07968097     0.14700
N1574       N  0.77027459  0.25270536  0.96155918    -0.01600
C1575       C  0.81470001  0.24962792  0.95361088     0.01000
C1576       C  0.82899251  0.28788519  0.96781728    -0.21900
C1577       C  0.79531059  0.31642187  0.97138152    -0.22100
C1578       C  0.76068778  0.29459466  0.96775101     0.00900
H1579       H  0.85976899  0.29867451  0.96898509     0.14700
H1580       H  0.79597238  0.01637036  0.97803688     0.14700
N1581       N  0.75959163  0.06769823  0.10634785    -0.01600
C1582       C  0.78945957  0.05108300  0.14856874     0.01000
C1583       C  0.77205516  0.05915465  0.19883056    -0.21900
C1584       C  0.74099404  0.09228122  0.18639180    -0.22100
C1585       C  0.74115267  0.10062562  0.13006426     0.00900
H1586       H  0.78682550  0.05015193  0.23985250     0.14700
H1587       H  0.72341056  0.11041506  0.21455334     0.14700
N1588       N  0.91243347  0.25129824  0.94109646    -0.01600
C1589       C  0.88745373  0.23824417  0.89864240     0.01000
C1590       C  0.90153589  0.25886072  0.85035073    -0.21900
C1591       C  0.92573314  0.29075027  0.86513381    -0.22100
C1592       C  0.92566565  0.28909374  0.92172522     0.00900
H1593       H  0.88835408  0.25738268  0.80904785     0.14700
H1594       H  0.93920030  0.98087532  0.83800894     0.14700
C1595       C  0.84076616  0.05353675  0.14612795    -0.00600
C1596       C  0.83693982  0.23184914  0.90089798    -0.00600
O1597       O  0.64985101  0.38184902  0.76708386    -0.72500
O1598       O  0.71060105  0.44689125  0.86572436    -0.72600
O1599       O  0.65022297  0.47247122  0.78548914    -0.72600
O1600       O  0.70761285  0.36722613  0.84586289    -0.72700
O1601       O  0.75597049  0.38342071  0.78586662    -0.72600
O1602       O  0.68360162  0.47321473  0.70698860    -0.72600
O1603       O  0.74286361  0.46896826  0.79088279    -0.72600
O1604       O  0.69783756  0.38297569  0.70376462    -0.72600
Ni1605     Ni  0.67644188  0.41756962  0.81770510     1.25400
Ni1606     Ni  0.72200642  0.42778257  0.74423728     1.25400
C1607       C  0.66620636  0.36527059  0.72468017     0.89600
C1608       C  0.74081940  0.46540608  0.84399022     0.89600
C1609       C  0.65537793  0.49000404  0.73668347     0.89600
C1610       C  0.74307635  0.35885111  0.82466474     0.89800
O1611       O  0.87261771  0.38803439  0.68544003    -0.72500
O1612       O  0.81464016  0.44562346  0.79232220    -0.72600
O1613       O  0.86073322  0.46759004  0.71264628    -0.72600
O1614       O  0.82490695  0.35689122  0.76794983    -0.72700
O1615       O  0.86285011  0.35571828  0.84627136    -0.72600
O1616       O  0.91816304  0.44588572  0.76673490    -0.72600
O1617       O  0.87006115  0.44333517  0.85108318    -0.72600
O1618       O  0.91340720  0.36079888  0.75882843    -0.72600
Ni1619     Ni  0.83986879  0.41432790  0.73767787     1.25400
Ni1620     Ni  0.89369891  0.40025839  0.80817538     1.25400
C1621       C  0.90670582  0.36766161  0.70649978     0.89600
C1622       C  0.83404470  0.46149460  0.83200073     0.89600
C1623       C  0.89745977  0.47448231  0.73230058     0.89600
C1624       C  0.83512465  0.33869353  0.81748822     0.89800
N1625       N  0.95692731  0.52361811  0.71408982    -0.01600
C1626       C  0.95980659  0.56737423  0.70439929     0.01000
C1627       C  0.91806093  0.58611880  0.70823080    -0.21900
C1628       C  0.89039912  0.55497375  0.71488490    -0.22100
C1629       C  0.91493187  0.51677188  0.71862823     0.00900
H1630       H  0.90669470  0.61890064  0.69852348     0.14700
H1631       H  0.85599396  0.55998280  0.71701615     0.14700
N1632       N  0.64336103  0.66548868  0.69737888    -0.01600
C1633       C  0.98862903  0.64033947  0.65519962     0.01000
C1634       C  0.97493565  0.66315930  0.60478200    -0.21900
C1635       C  0.94336972  0.69306351  0.61700530    -0.22100
C1636       C  0.94094002  0.68641632  0.67313223     0.00900
H1637       H  0.97890542  0.65289688  0.56387676     0.14700
H1638       H  0.92174378  0.71367178  0.58899188     0.14700
N1639       N  0.81155773  0.49541088  0.85914009    -0.01600
C1640       C  0.83036651  0.51483563  0.90164379     0.01000
C1641       C  0.81631043  0.49437711  0.95002986    -0.21900
C1642       C  0.78239813  0.47199046  0.93594921    -0.22100
C1643       C  0.77615109  0.47968808  0.87957897     0.00900
H1644       H  0.82309086  0.50231841  0.99125323     0.14700
H1645       H  0.76258718  0.45500828  0.96358561     0.14700
N1646       N  0.80815010  0.63971213  0.84282658    -0.01600
C1647       C  0.81167611  0.59459011  0.85017233     0.01000
C1648       C  0.77081858  0.58259850  0.83870258    -0.21900
C1649       C  0.74222202  0.61681536  0.83659897    -0.22100
C1650       C  0.76520779  0.65054519  0.83848096     0.00900
H1651       H  0.75916844  0.55230665  0.84043306     0.14700
H1652       H  0.70773951  0.61723411  0.83229501     0.14700
C1653       C  0.98737721  0.58878287  0.65808099    -0.00600
O1654       O  0.78075828  0.38575986  0.52447865    -0.72500
O1655       O  0.87818517  0.64462499  0.59812023    -0.72600
O1656       O  0.87301117  0.37317380  0.51766805    -0.72600
O1657       O  0.79471122  0.66074107  0.61195544    -0.72700
O1658       O  0.79100231  0.61327863  0.55117677    -0.72600
O1659       O  0.85453142  0.67566107  0.44365653    -0.72600
O1660       O  0.87580231  0.61375179  0.52049003    -0.72600
O1661       O  0.76685723  0.67346978  0.46530529    -0.72600
Ni1662     Ni  0.83199010  0.68554386  0.56446072     1.25400
Ni1663     Ni  0.82142797  0.64190670  0.49286533     1.25400
C1664       C  0.75449923  0.37405222  0.48681802     0.89600
C1665       C  0.89301205  0.61567074  0.56861683     0.89600
C1666       C  0.87794880  0.36700308  0.46762224     0.89600
C1667       C  0.78223716  0.62641848  0.59859603     0.89800
O1668       O  0.74842696  0.49718336  0.46664970    -0.72500
O1669       O  0.84184074  0.54932426  0.52691580    -0.72600
O1670       O  0.83194073  0.49662634  0.44955232    -0.72600
O1671       O  0.75185213  0.55359132  0.53894908    -0.72700
O1672       O  0.77136511  0.51029475  0.61469599    -0.72600
O1673       O  0.83964942  0.44351445  0.51586705    -0.72600
O1674       O  0.85596005  0.49570539  0.59243945    -0.72600
O1675       O  0.75536963  0.45473348  0.54561931    -0.72600
Ni1676     Ni  0.79301213  0.52676977  0.49350495     1.25400
Ni1677     Ni  0.80590142  0.47384369  0.56960535     1.25400
C1678       C  0.73790912  0.46588712  0.49810761     0.89600
C1679       C  0.86656825  0.52910611  0.56636289     0.89600
C1680       C  0.84833219  0.45930866  0.46680763     0.89600
C1681       C  0.74895500  0.54361017  0.59073319     0.89800
N1682       N  0.71252304  0.40027429  0.46869460    -0.01600
C1683       C  0.67034341  0.38916635  0.46228382     0.01000
C1684       C  0.64469028  0.41665304  0.49115842    -0.21900
C1685       C  0.66511521  0.45168219  0.49529794    -0.22100
C1686       C  0.70554896  0.44107402  0.48155702     0.00900
H1687       H  0.94645194  0.41434181  0.50495575     0.14700
H1688       H  0.65307448  0.48134584  0.50926852     0.14700
N1689       N  0.90090194  0.39736389  0.43769219    -0.01600
C1690       C  0.93015288  0.39199990  0.39682745     0.01000
C1691       C  0.91596114  0.42466506  0.35586385    -0.21900
C1692       C  0.88596379  0.45286436  0.37676357    -0.22100
C1693       C  0.87815305  0.43627721  0.42831415     0.00900
H1694       H  0.93135466  0.43214133  0.31831792     0.14700
H1695       H  0.87345754  0.48402757  0.35891237     0.14700
N1696       N  0.72884008  0.57593967  0.62236089    -0.01600
C1697       C  0.70224315  0.57066768  0.66550308     0.01000
C1698       C  0.72243461  0.58373775  0.71200155    -0.21900
C1699       C  0.75478201  0.60717050  0.69380871    -0.22100
C1700       C  0.75644429  0.60286443  0.63797975     0.00900
H1701       H  0.70764189  0.58631564  0.75089088     0.14700
H1702       H  0.77267515  0.29410242  0.71758195     0.14700
N1703       N  0.92182372  0.57903106  0.59066723    -0.01600
C1704       C  0.96560315  0.57320904  0.60480919     0.01000
C1705       C  0.97912782  0.53104433  0.59581353    -0.21900
C1706       C  0.94419238  0.51045177  0.58445491    -0.22100
C1707       C  0.91015828  0.54042075  0.57952513     0.00900
H1708       H  0.00966251  0.51354023  0.60762058     0.14700
H1709       H  0.94340276  0.47657700  0.58209274     0.14700
O1710       O  0.95067699  0.50689230  0.35673622    -0.72500
O1711       O  0.88541786  0.60722463  0.27345253    -0.72600
O1712       O  0.89132983  0.51740731  0.27290692    -0.72600
O1713       O  0.94639921  0.59657457  0.35443949    -0.72700
O1714       O  0.98203094  0.60719049  0.27853116    -0.72600
O1715       O  0.93960199  0.51637045  0.20939762    -0.72600
O1716       O  0.92416839  0.60288647  0.19956432    -0.72600
O1717       O  0.99616559  0.51368775  0.29160600    -0.72600
Ni1718     Ni  0.91621430  0.55718557  0.31655778     1.25400
Ni1719     Ni  0.96295094  0.56047147  0.24318919     1.25400
C1720       C  0.98443519  0.49124868  0.33502085     0.89600
C1721       C  0.89141051  0.61938490  0.22237103     0.89600
C1722       C  0.90816053  0.50092415  0.23173221     0.89600
C1723       C  0.97367608  0.61624711  0.32714055     0.89800
O1724       O  0.77374950  0.49812141  0.35619557    -0.72500
O1725       O  0.82602272  0.57031246  0.25185371    -0.72600
O1726       O  0.77442394  0.58102823  0.33811889    -0.72600
O1727       O  0.82730720  0.48287028  0.27847909    -0.72700
O1728       O  0.78881482  0.49402913  0.19987322    -0.72600
O1729       O  0.71910094  0.57482651  0.28159977    -0.72600
O1730       O  0.77007862  0.57906613  0.19252358    -0.72600
O1731       O  0.06750010  0.48945992  0.28114770    -0.72600
Ni1732     Ni  0.80318339  0.53344829  0.30794397     1.25400
Ni1733     Ni  0.75029190  0.53444463  0.23640616     1.25400
C1734       C  0.74346057  0.48196216  0.33238887     0.89600
C1735       C  0.80719115  0.58739974  0.20625028     0.89600
C1736       C  0.73482992  0.59025053  0.32497829     0.89600
C1737       C  0.82085027  0.47394580  0.22908646     0.89800
N1738       N  0.00296337  0.64031796  0.35432269    -0.01600
C1739       C  0.99366024  0.32727067  0.40155254     0.01000
C1740       C  0.68695332  0.30442662  0.44406012    -0.21900
C1741       C  0.71786664  0.61232833  0.42058461    -0.22100
C1742       C  0.70817855  0.61594274  0.36463819     0.00900
H1743       H  0.68875089  0.31021448  0.48726934     0.14700
H1744       H  0.74515274  0.59368221  0.44208323     0.14700
N1745       N  0.85572703  0.44864768  0.20607893    -0.01600
C1746       C  0.86095603  0.40557806  0.19778392     0.01000
C1747       C  0.90430269  0.39149251  0.20957312    -0.21900
C1748       C  0.92607712  0.42582664  0.21609410    -0.22100
C1749       C  0.89600484  0.45994909  0.21504792     0.00900
H1750       H  0.92073474  0.36097323  0.20356388     0.14700
H1751       H  0.96034931  0.42559788  0.22315226     0.14700
N1752       N  0.01143760  0.45086204  0.36009433    -0.01600
C1753       C  0.00482078  0.40720116  0.35884086     0.01000
C1754       C  0.70873003  0.38651959  0.34150506    -0.21900
C1755       C  0.74078501  0.41030485  0.34951715    -0.22100
C1756       C  0.72190846  0.44927602  0.35869915     0.00900
H1757       H  0.71416598  0.35677339  0.32460078     0.14700
H1758       H  0.77339624  0.40264991  0.33802801     0.14700
N1759       N  0.85615164  0.64322728  0.18821416    -0.01600
C1760       C  0.85929053  0.33960822  0.14360178     0.01000
C1761       C  0.84463484  0.32322063  0.09608003    -0.21900
C1762       C  0.82176432  0.62330842  0.11296910    -0.22100
C1763       C  0.82816046  0.61745103  0.16966458     0.00900
H1764       H  0.84128988  0.34045755  0.05549466     0.14700
H1765       H  0.80098163  0.60694310  0.08736672     0.14700
C1766       C  0.98185432  0.37827980  0.40474310    -0.00600
O1767       O  0.97127060  0.46711894  0.03279518    -0.72500
O1768       O  0.72062071  0.53187705  0.95656576    -0.70200
O1769       O  0.72433908  0.47065976  0.04356379    -0.72600
O1770       O  0.96540941  0.52533624  0.94937797    -0.72700
O1771       O  0.96906048  0.57314030  0.00905897    -0.72600
O1772       O  0.70469504  0.50311391  0.11657458    -0.72600
O1773       O  0.72720332  0.56037273  0.03520145    -0.72600
O1774       O  0.95523560  0.51745624  0.08766478    -0.72600
Ni1775     Ni  0.67974597  0.49648011  0.99310303     1.25400
Ni1776     Ni  0.67273721  0.54153781  0.06402735     1.25400
C1777       C  0.94633707  0.48334201  0.06748327     0.89600
C1778       C  0.74041798  0.55621216  0.98589571     0.89600
C1779       C  0.72286520  0.47153215  0.09594320     0.89600
C1780       C  0.94918187  0.55883021  0.96856494     0.89800
O1781       O  0.70257331  0.40182242  0.03606028    -0.72500
O1782       O  0.96041796  0.68544112  0.93702199    -0.72600
O1783       O  0.94322592  0.40316692  0.01687954    -0.72600
O1784       O  0.70949997  0.68584526  0.95849265    -0.72700
O1785       O  0.69981449  0.63149781  0.01924877    -0.72600
O1786       O  0.95036920  0.69444317  0.09544691    -0.72600
O1787       O  0.94652743  0.64444727  0.01140894    -0.72600
O1788       O  0.70808852  0.68081858  0.10017516    -0.72600
Ni1789     Ni  0.66162528  0.38058853  0.98540248     1.25400
Ni1790     Ni  0.65911410  0.66059458  0.05921100     1.25400
C1791       C  0.72358956  0.38114942  0.07897598     0.89600
C1792       C  0.94426087  0.65285137  0.95824327     0.89600
C1793       C  0.93078006  0.39272983  0.06555978     0.89600
C1794       C  0.72033313  0.64847836  0.98057047     0.89800
N1795       N  0.89961714  0.42193861  0.08772415    -0.01600
C1796       C  0.85673212  0.41779735  0.09743617     0.01000
C1797       C  0.83691318  0.45954374  0.09067732    -0.21900
C1798       C  0.86722213  0.48795577  0.08323926    -0.22100
C1799       C  0.90548173  0.46421785  0.08103805     0.00900
H1800       H  0.80504898  0.46997145  0.10006197     0.14700
H1801       H  0.86159857  0.52236407  0.07967583     0.14700
N1802       N  0.77027397  0.58604078  0.96155727    -0.01600
C1803       C  0.81469908  0.58296354  0.95360742     0.01000
C1804       C  0.82899124  0.62122140  0.96781254    -0.21900
C1805       C  0.79530940  0.64975739  0.97137947    -0.22100
C1806       C  0.76068698  0.62792967  0.96775118     0.00900
H1807       H  0.85976832  0.63201252  0.96897569     0.14700
H1808       H  0.79597210  0.34970332  0.97803290     0.14700
N1809       N  0.75959339  0.40103161  0.10633803    -0.01600
C1810       C  0.78946080  0.38441589  0.14855927     0.01000
C1811       C  0.77205557  0.39248560  0.19882107    -0.21900
C1812       C  0.74099467  0.42561258  0.18638272    -0.22100
C1813       C  0.74115434  0.43395834  0.13005536     0.00900
H1814       H  0.78682520  0.38348203  0.23984222     0.14700
H1815       H  0.72341121  0.44374534  0.21454394     0.14700
N1816       N  0.91243232  0.58463201  0.94109396    -0.01600
C1817       C  0.88745221  0.57157867  0.89863924     0.01000
C1818       C  0.90153402  0.59219653  0.85034852    -0.21900
C1819       C  0.92573194  0.62408511  0.86513238    -0.22100
C1820       C  0.92566508  0.62242756  0.92172383     0.00900
H1821       H  0.88835024  0.59072013  0.80904330     0.14700
H1822       H  0.93919774  0.31420878  0.83800493     0.14700
C1823       C  0.84076721  0.38687090  0.14612067    -0.00600
C1824       C  0.83693811  0.56518344  0.90089502    -0.00600
O1825       O  0.64985105  0.71518266  0.76708631    -0.72500
O1826       O  0.71060039  0.78022758  0.86572449    -0.72600
O1827       O  0.65022267  0.80580522  0.78548928    -0.72600
O1828       O  0.70761266  0.70056171  0.84586580    -0.72700
O1829       O  0.75597000  0.71675539  0.78586869    -0.72600
O1830       O  0.68360169  0.80654806  0.70698898    -0.72600
O1831       O  0.74286347  0.80230311  0.79088277    -0.72600
O1832       O  0.69783740  0.71630909  0.70376683    -0.72600
Ni1833     Ni  0.67644164  0.75090457  0.81770653     1.25400
Ni1834     Ni  0.72200623  0.76111662  0.74423845     1.25400
C1835       C  0.66620646  0.69860386  0.72468273     0.89600
C1836       C  0.74081896  0.79874192  0.84399013     0.89600
C1837       C  0.65537798  0.82333746  0.73668361     0.89600
C1838       C  0.74307576  0.69218618  0.82466697     0.89800
O1839       O  0.87261789  0.72136850  0.68543992    -0.72500
O1840       O  0.81464004  0.77895865  0.79232193    -0.72600
O1841       O  0.86073355  0.80092437  0.71264596    -0.72600
O1842       O  0.82490586  0.69022574  0.76794871    -0.72700
O1843       O  0.86284867  0.68905218  0.84627078    -0.72600
O1844       O  0.91816271  0.77921974  0.76673604    -0.72600
O1845       O  0.87006052  0.77666894  0.85108407    -0.72600
O1846       O  0.91340689  0.69413311  0.75882887    -0.72600
Ni1847     Ni  0.83986854  0.74766246  0.73767739     1.25400
Ni1848     Ni  0.89369811  0.73359235  0.80817583     1.25400
C1849       C  0.90670601  0.70099578  0.70650014     0.89600
C1850       C  0.83404449  0.79482912  0.83200137     0.89600
C1851       C  0.89745992  0.80781640  0.73230115     0.89600
C1852       C  0.83512327  0.67202770  0.81748706     0.89800
N1853       N  0.95692808  0.85695146  0.71409014    -0.01600
C1854       C  0.95980847  0.90070741  0.70440124     0.01000
C1855       C  0.91806320  0.91945257  0.70823359    -0.21900
C1856       C  0.89040072  0.88830803  0.71488699    -0.22100
C1857       C  0.91493265  0.85010573  0.71862873     0.00900
H1858       H  0.90669696  0.95223525  0.69852786     0.14700
H1859       H  0.85599635  0.89331739  0.71701879     0.14700
N1860       N  0.64336531  0.99882135  0.69738199    -0.01600
C1861       C  0.98863265  0.97367219  0.65520249     0.01000
C1862       C  0.97493805  0.99649189  0.60478503    -0.21900
C1863       C  0.94337220  0.02639597  0.61700967    -0.22100
C1864       C  0.94094372  0.01974859  0.67313649     0.00900
H1865       H  0.97890674  0.98623025  0.56388076     0.14700
H1866       H  0.92174613  0.04700391  0.58899804     0.14700
N1867       N  0.81155808  0.82874581  0.85914105    -0.01600
C1868       C  0.83036728  0.84816940  0.90164593     0.01000
C1869       C  0.81631058  0.82771044  0.95003104    -0.21900
C1870       C  0.78239714  0.80532561  0.93594938    -0.22100
C1871       C  0.77615060  0.81302404  0.87957901     0.00900
H1872       H  0.82309157  0.83565030  0.99125489     0.14700
H1873       H  0.76258556  0.78834492  0.96358472     0.14700
N1874       N  0.80815404  0.97304718  0.84283530    -0.01600
C1875       C  0.81167851  0.92792524  0.85017885     0.01000
C1876       C  0.77082097  0.91593495  0.83870711    -0.21900
C1877       C  0.74222538  0.95015240  0.83660371    -0.22100
C1878       C  0.76521185  0.98388153  0.83848780     0.00900
H1879       H  0.75917025  0.88564366  0.84043544     0.14700
H1880       H  0.70774269  0.95057199  0.83229729     0.14700
C1881       C  0.98738086  0.92211545  0.65808436    -0.00600
O1882       O  0.78076033  0.71909424  0.52447981    -0.72500
O1883       O  0.87819008  0.97795523  0.59812622    -0.72600
O1884       O  0.87301353  0.70650759  0.51766941    -0.72600
O1885       O  0.79471640  0.99407238  0.61196254    -0.72700
O1886       O  0.79100921  0.94660817  0.55118619    -0.72600
O1887       O  0.85453474  0.00899047  0.44366139    -0.72600
O1888       O  0.87580797  0.94708290  0.52049547    -0.72600
O1889       O  0.76686086  0.00679582  0.46531360    -0.72600
Ni1890     Ni  0.83199522  0.01887398  0.56446616     1.25400
Ni1891     Ni  0.82143286  0.97523562  0.49287239     1.25400
C1892       C  0.75450137  0.70738695  0.48681889     0.89600
C1893       C  0.89301727  0.94900154  0.56862224     0.89600
C1894       C  0.87795115  0.70033708  0.46762345     0.89600
C1895       C  0.78224310  0.95974908  0.59860445     0.89800
O1896       O  0.74843119  0.83051875  0.46665095    -0.72500
O1897       O  0.84184566  0.88265636  0.52692085    -0.72600
O1898       O  0.83194512  0.82996127  0.44955458    -0.72600
O1899       O  0.75185650  0.88692394  0.53895455    -0.72700
O1900       O  0.77137048  0.84362641  0.61470011    -0.72600
O1901       O  0.83965232  0.77684794  0.51586717    -0.72600
O1902       O  0.85596547  0.82903577  0.59244197    -0.72600
O1903       O  0.75537295  0.78806814  0.54561976    -0.72600
Ni1904     Ni  0.79301666  0.86010375  0.49350861     1.25400
Ni1905     Ni  0.80590565  0.80717618  0.56960708     1.25400
C1906       C  0.73791282  0.79922227  0.49810787     0.89600
C1907       C  0.86657368  0.86243697  0.56636658     0.89600
C1908       C  0.84833554  0.79264292  0.46680846     0.89600
C1909       C  0.74895991  0.87694209  0.59073870     0.89800
N1910       N  0.71252520  0.73360924  0.46869638    -0.01600
C1911       C  0.67034538  0.72250156  0.46228585     0.01000
C1912       C  0.64469235  0.74999079  0.49115724    -0.21900
C1913       C  0.66511783  0.78501977  0.49529449    -0.22100
C1914       C  0.70555200  0.77440985  0.48155631     0.00900
H1915       H  0.94645414  0.74768083  0.50495435     0.14700
H1916       H  0.65307681  0.81468538  0.50926336     0.14700
N1917       N  0.90090444  0.73069790  0.43769325    -0.01600
C1918       C  0.93015583  0.72533403  0.39682905     0.01000
C1919       C  0.91596487  0.75799910  0.35586509    -0.21900
C1920       C  0.88596749  0.78619870  0.37676447    -0.22100
C1921       C  0.87815583  0.76961133  0.42831462     0.00900
H1922       H  0.93135879  0.76547470  0.31831940     0.14700
H1923       H  0.87346084  0.81736198  0.35891288     0.14700
N1924       N  0.72884529  0.90927109  0.62236782    -0.01600
C1925       C  0.70224678  0.90399978  0.66550861     0.01000
C1926       C  0.72243692  0.91707052  0.71200780    -0.21900
C1927       C  0.75478493  0.94050290  0.69381613    -0.22100
C1928       C  0.75644944  0.93619568  0.63798781     0.00900
H1929       H  0.70764326  0.91964901  0.75089583     0.14700
H1930       H  0.77267790  0.62743225  0.71758292     0.14700
N1931       N  0.92182884  0.91236199  0.59067160    -0.01600
C1932       C  0.96560822  0.90654085  0.60481272     0.01000
C1933       C  0.97913366  0.86437659  0.59581614    -0.21900
C1934       C  0.94419858  0.84378334  0.58445738    -0.22100
C1935       C  0.91016374  0.87375177  0.57952905     0.00900
H1936       H  0.00966979  0.84687238  0.60762193     0.14700
H1937       H  0.94340957  0.80990957  0.58209417     0.14700
O1938       O  0.95068318  0.84022267  0.35673504    -0.72500
O1939       O  0.88542215  0.94055421  0.27345388    -0.72600
O1940       O  0.89133504  0.85073637  0.27290723    -0.72600
O1941       O  0.94640519  0.92990494  0.35443733    -0.72700
O1942       O  0.98203552  0.94052076  0.27852788    -0.72600
O1943       O  0.93960560  0.84969989  0.20939617    -0.72600
O1944       O  0.92417067  0.93621674  0.19956379    -0.72600
O1945       O  0.99617031  0.84701703  0.29160282    -0.72600
Ni1946     Ni  0.91621985  0.89051530  0.31655723     1.25400
Ni1947     Ni  0.96295475  0.89380132  0.24318689     1.25400
C1948       C  0.98444055  0.82457852  0.33501866     0.89600
C1949       C  0.89141370  0.95271554  0.22237246     0.89600
C1950       C  0.90816518  0.83425286  0.23173236     0.89600
C1951       C  0.97368115  0.94957798  0.32713722     0.89800
O1952       O  0.77375484  0.83144995  0.35619516    -0.72500
O1953       O  0.82602711  0.90364215  0.25185392    -0.72600
O1954       O  0.77442759  0.91435681  0.33811878    -0.72600
O1955       O  0.82731196  0.81620004  0.27847881    -0.72700
O1956       O  0.78881905  0.82735816  0.19987309    -0.72600
O1957       O  0.71910521  0.90815514  0.28159834    -0.72600
O1958       O  0.77008339  0.91239487  0.19252307    -0.72600
O1959       O  0.06750547  0.82278889  0.28114741    -0.72600
Ni1960     Ni  0.80318798  0.86677741  0.30794377     1.25400
Ni1961     Ni  0.75029660  0.86777344  0.23640559     1.25400
C1962       C  0.74346590  0.81529096  0.33238838     0.89600
C1963       C  0.80719535  0.92072970  0.20625076     0.89600
C1964       C  0.73483373  0.92357921  0.32497700     0.89600
C1965       C  0.82085459  0.80727546  0.22908646     0.89800
N1966       N  0.00296843  0.97364973  0.35431836    -0.01600
C1967       C  0.99366008  0.66060314  0.40155756     0.01000
C1968       C  0.68695498  0.63776023  0.44406424    -0.21900
C1969       C  0.71786733  0.94565391  0.42058343    -0.22100
C1970       C  0.70818159  0.94927107  0.36463624     0.00900
H1971       H  0.68875566  0.64355045  0.48727138     0.14700
H1972       H  0.74515110  0.92700546  0.44208270     0.14700
N1973       N  0.85573086  0.78197703  0.20607949    -0.01600
C1974       C  0.86095801  0.73890795  0.19778311     0.01000
C1975       C  0.90430471  0.72482110  0.20957091    -0.21900
C1976       C  0.92608033  0.75915426  0.21609436    -0.22100
C1977       C  0.89600897  0.79327749  0.21504883     0.00900
H1978       H  0.92073576  0.69430187  0.20355946     0.14700
H1979       H  0.96035295  0.75892462  0.22315214     0.14700
N1980       N  0.01144275  0.78419200  0.36009244    -0.01600
C1981       C  0.00482542  0.74053104  0.35884297     0.01000
C1982       C  0.70873598  0.71984737  0.34151265    -0.21900
C1983       C  0.74079056  0.74363373  0.34952178    -0.22100
C1984       C  0.72191362  0.78260557  0.35869869     0.00900
H1985       H  0.71417336  0.69009981  0.32461681     0.14700
H1986       H  0.77340329  0.73597708  0.33803575     0.14700
N1987       N  0.85615401  0.97655940  0.18821824    -0.01600
C1988       C  0.85928690  0.67293973  0.14360098     0.01000
C1989       C  0.84463015  0.65655223  0.09607973    -0.21900
C1990       C  0.82176725  0.95664231  0.11297156    -0.22100
C1991       C  0.82816360  0.95078299  0.16966670     0.00900
H1992       H  0.84128553  0.67378961  0.05549327     0.14700
H1993       H  0.80098484  0.94027679  0.08736731     0.14700
C1994       C  0.98185670  0.71161271  0.40474587    -0.00600
O1995       O  0.97126923  0.80045270  0.03280024    -0.72500
O1996       O  0.72062065  0.86521049  0.95657252    -0.70200
O1997       O  0.72433763  0.80399283  0.04356973    -0.72600
O1998       O  0.96540944  0.85867042  0.94938411    -0.72700
O1999       O  0.96906030  0.90647413  0.00906548    -0.72600
O2000       O  0.70469301  0.83644612  0.11658097    -0.72600
O2001       O  0.72720322  0.89370565  0.03520869    -0.72600
O2002       O  0.95523351  0.85078976  0.08766979    -0.72600
Ni2003     Ni  0.67974527  0.82981384  0.99310901     1.25400
Ni2004     Ni  0.67273620  0.87487095  0.06403380     1.25400
C2005       C  0.94633518  0.81667554  0.06748787     0.89600
C2006       C  0.74041825  0.88954509  0.98590282     0.89600
C2007       C  0.72286319  0.80486458  0.09594913     0.89600
C2008       C  0.94918204  0.89216436  0.96857098     0.89800
O2009       O  0.70257248  0.73515567  0.03606188    -0.72500
O2010       O  0.96042013  0.01877442  0.93702708    -0.72600
O2011       O  0.94322492  0.73650120  0.01688079    -0.72600
O2012       O  0.70950192  0.01917894  0.95849980    -0.72700
O2013       O  0.69981493  0.96483088  0.01925419    -0.72600
O2014       O  0.95037037  0.02777617  0.09545356    -0.72600
O2015       O  0.94652822  0.97778132  0.01141381    -0.72600
O2016       O  0.70808951  0.01415106  0.10018152    -0.72600
Ni2017     Ni  0.66162397  0.71392240  0.98540370     1.25400
Ni2018     Ni  0.65911486  0.99392763  0.05921685     1.25400
C2019       C  0.72358792  0.71448268  0.07897823     0.89600
C2020       C  0.94426235  0.98618507  0.95824812     0.89600
C2021       C  0.93077829  0.72606331  0.06556032     0.89600
C2022       C  0.72033442  0.98181163  0.98057691     0.89800
N2023       N  0.89961519  0.75527151  0.08772488    -0.01600
C2024       C  0.85673029  0.75112933  0.09743616     0.01000
C2025       C  0.83691089  0.79287549  0.09067843    -0.21900
C2026       C  0.86721975  0.82128818  0.08324250    -0.22100
C2027       C  0.90547971  0.79755082  0.08104115     0.00900
H2028       H  0.80504704  0.80330239  0.10006153     0.14700
H2029       H  0.86159581  0.85569551  0.07968049     0.14700
N2030       N  0.77027485  0.91937327  0.96156414    -0.01600
C2031       C  0.81470013  0.91629584  0.95361386     0.01000
C2032       C  0.82899275  0.95455328  0.96782006    -0.21900
C2033       C  0.79531094  0.98308962  0.97138676    -0.22100
C2034       C  0.76068823  0.96126216  0.96775799     0.00900
H2035       H  0.85976904  0.96534454  0.96898356     0.14700
H2036       H  0.79597057  0.68303942  0.97803063     0.14700
N2037       N  0.75959151  0.73436462  0.10634131    -0.01600
C2038       C  0.78945974  0.71774866  0.14856159     0.01000
C2039       C  0.77205575  0.72581781  0.19882421    -0.21900
C2040       C  0.74099348  0.75894346  0.18638741    -0.22100
C2041       C  0.74115205  0.76729029  0.13006027     0.00900
H2042       H  0.78682662  0.71681353  0.23984593     0.14700
H2043       H  0.72340843  0.77707498  0.21454977     0.14700
N2044       N  0.91243306  0.91796620  0.94109947    -0.01600
C2045       C  0.88745342  0.90491224  0.89864496     0.01000
C2046       C  0.90153640  0.92552873  0.85035392    -0.21900
C2047       C  0.92573468  0.95741748  0.86513731    -0.22100
C2048       C  0.92566645  0.95576126  0.92172875     0.00900
H2049       H  0.88835387  0.92405144  0.80904961     0.14700
H2050       H  0.93919693  0.64754472  0.83800409     0.14700
C2051       C  0.84076606  0.72020258  0.14612067    -0.00600
C2052       C  0.83693934  0.89851703  0.90090031    -0.00600
loop_ 
_geom_bond_atom_site_label_1 
_geom_bond_atom_site_label_2 
_geom_bond_distance 
_geom_bond_site_symmetry_2 
_ccdc_geom_bond_type 
O1           Ni9   1.959   1_655  S
O1           C11   1.300       .  A
O2           Ni9   1.912       .  S
O2           C12   1.271       .  A
O3           Ni9   1.934   1_655  S
O3           C13   1.284       .  A
O4           Ni9   1.849       .  S
O4           C14   1.263       .  A
O5          Ni10   1.871       .  S
O5           C14   1.270       .  A
O6          Ni10   1.920       .  S
O6           C13   1.275   1_455  A
O7          Ni10   1.945       .  S
O7           C12   1.287       .  A
O8          Ni10   1.989       .  S
O8           C11   1.287   1_455  A
Ni9         Ni10   2.351       .  S
C11         N492   1.512   1_545  S
C12          C47   1.507       .  S
C13        N1397   1.442       .  S
C14         C510   1.436   1_545  S
O15         Ni23   1.871       .  S
O15          C25   1.261       .  A
O16         Ni23   1.885       .  S
O16          C26   1.284       .  A
O17         Ni23   1.924       .  S
O17          C27   1.276       .  A
O18         Ni23   2.004       .  S
O18          C28   1.298       .  A
O19         Ni24   1.969       .  S
O19          C28   1.283       .  A
O20         Ni24   1.923       .  S
O20          C27   1.283       .  A
O21         Ni24   1.906       .  S
O21          C26   1.270       .  A
O22         Ni24   1.890       .  S
O22          C25   1.273       .  A
Ni23        Ni24   2.337       .  S
C25         C496   1.441       .  S
C26          N43   1.454       .  S
C27          C33   1.510       .  S
C28         N506   1.496   1_545  S
N29         C697   1.442       .  S
N29          C33   1.366       .  A
N29          C30   1.397       .  A
C30          C31   1.399       .  A
C30          C57   1.589       .  S
C31          C32   1.379       .  A
C31          H34   1.068       .  S
C32          C33   1.366       .  A
C32          H35   1.083       .  S
N36         C239   1.512       .  S
N36        C1408   1.335       .  A
N36        C1405   1.396       .  A
C37         N720   1.396       .  A
C37          C38   1.392       .  A
C37          C57   1.633       .  S
C38          C39   1.368       .  A
C38          H41   1.081       .  S
C39          C40   1.364       .  A
C39          H42   1.071       .  S
C40         C253   1.441       .  S
C40         N720   1.335       .  A
N43          C47   1.356       .  A
N43          C44   1.388       .  A
C44          C45   1.396       .  A
C44         C228   1.626       .  S
C45          C46   1.383       .  A
C45          H48   1.071       .  S
C46          C47   1.369       .  A
C46          H49   1.076       .  S
N50         C256   1.496       .  S
N50          C54   1.359       .  A
N50          C51   1.418       .  A
C51          C52   1.398       .  A
C51         C228   1.606       .  S
C52          C53   1.338       .  A
C52          H55   1.057       .  S
C53          C54   1.349       .  A
C53          H56   1.084       .  S
C54         C242   1.436       .  S
C57         C108   1.577       .  S
C57         C785   1.566       .  S
O58        Ni522   2.005       .  S
O58          C68   1.308       .  A
O59         Ni66   1.951       .  S
O59          C69   1.281       .  A
O60        Ni522   1.881       .  S
O60          C70   1.261       .  A
O61         Ni66   1.854       .  S
O61          C71   1.256       .  A
O62         Ni67   1.944       .  S
O62          C71   1.290       .  A
O63         Ni67   1.931       .  S
O63         C298   1.284       .  A
O64         Ni67   1.917       .  S
O64          C69   1.275       .  A
O65         Ni67   1.962       .  S
O65         C296   1.273       .  A
Ni66        O286   2.005       .  S
Ni66        O288   1.881       .  S
Ni66        Ni67   2.349       .  S
C68         O521   1.273       .  A
C68          N86   1.518       .  S
C69         N107   1.450       .  S
C70         O519   1.284       .  A
C70          N93   1.421       .  S
C71         C104   1.475       .  S
O72         Ni80   1.885       .  S
O72          C82   1.272       .  A
O73         Ni80   1.932       .  S
O73          C83   1.289       .  A
O74         Ni80   1.904       .  S
O74          C84   1.271       .  A
O75         Ni80   1.923       .  S
O75          C85   1.276       .  A
O76         Ni81   1.951       .  S
O76          C85   1.289       .  A
O77         Ni81   1.976       .  S
O77          C84   1.298       .  A
O78         Ni81   1.862       .  S
O78          C83   1.262       .  A
O79         Ni81   1.843       .  S
O79          C82   1.261       .  A
Ni80        Ni81   2.371       .  S
C82          C90   1.410       .  S
C83         C111   1.479       .  S
C84          C97   1.534       .  S
C85         N100   1.450       .  S
N86          C90   1.358       .  A
N86          C87   1.410       .  A
C87          C88   1.388   1_455  A
C87        C1538   1.609   1_455  S
C88          C89   1.343       .  A
C88        H1459   1.068       .  S
C89          C90   1.348   1_655  A
C89          H92   1.070       .  S
H91         C772   1.068       .  S
N93          C97   1.361       .  A
N93          C94   1.391       .  A
C94          C95   1.394       .  A
C94         C170   1.641       .  S
C95          C96   1.382       .  A
C95          H98   1.067       .  S
C96          C97   1.352       .  A
C96          H99   1.073       .  S
N100        C104   1.340       .  A
N100        C101   1.375       .  A
C101        C102   1.386       .  A
C101       C1425   1.566   1_455  S
C102        C103   1.378       .  A
C102        H105   1.075       .  S
C103        C104   1.376       .  A
C103        H334   1.082       .  S
H106        C559   1.082       .  S
N107        C111   1.357       .  A
N107        C108   1.396       .  A
C108        C109   1.403       .  A
C109        C110   1.361       .  A
C109        H112   1.076       .  S
C110        C111   1.356       .  A
C110        H113   1.083       .  S
O114       Ni122   1.991       .  S
O114        C124   1.283       .  A
O115       Ni122   1.966       .  S
O115        C125   1.290       .  A
O116       Ni122   1.919       .  S
O116        C126   1.280       .  A
O117       Ni122   1.914       .  S
O117        C127   1.279       .  A
O118       Ni123   1.909       .  S
O118        C127   1.271       .  A
O119       Ni123   1.875       .  S
O119        C126   1.264       .  A
O120       Ni123   1.932       .  S
O120        C125   1.281       .  A
O121       Ni123   1.988       .  S
O121        C124   1.301       .  A
Ni122      Ni123   2.356       .  S
C124        N156   1.529       .  S
C125        N163   1.461       .  S
C126        C153   1.474       .  S
C127        N142   1.428       .  S
O128       Ni136   1.877       .  S
O128        C138   1.266       .  A
O129       Ni136   1.918       .  S
O129        C139   1.281       .  A
O130       Ni136   1.905       .  S
O130        C140   1.272       .  A
O131       Ni136   1.919       .  S
O131        C141   1.268       .  A
O132       Ni137   1.975       .  S
O132        C141   1.288       .  A
O133       Ni137   1.978       .  S
O133        C140   1.299       .  A
O134       Ni137   1.861       .  S
O134        C139   1.259       .  A
O135       Ni821   1.834       .  S
O135        C822   1.260       .  A
Ni136      Ni137   2.348       .  S
Ni137      O1503   1.834       .  S
C138       O1503   1.260       .  A
C138        C160   1.409       .  S
C139        C167   1.463       .  S
C140        C146   1.541       .  S
C141        N149   1.458       .  S
N142        C830   1.375       .  A
N142        C371   1.393       .  A
C143        N598   1.393       .  A
C143        C828   1.401       .  A
C143        C170   1.634   1_565  S
C144       C1511   1.401   1_455  A
C144        C601   1.379       .  A
C144        H147   1.080       .  S
C145        C146   1.370       .  A
C145        C372   1.379       .  A
C145        H148   1.080       .  S
C146       N1510   1.375       .  A
N149        C153   1.362       .  A
N149        C150   1.393       .  A
C150        C151   1.403       .  A
C150        C227   1.570       .  S
C151        C152   1.357       .  A
C151        H154   1.078       .  S
C152        C153   1.365       .  A
C152        H155   1.083       .  S
N156        C157   1.421       .  A
N156        C844   1.376       .  A
C157        C842   1.388       .  A
C157        C170   1.614       .  S
C158        C159   1.332       .  A
C158       C1525   1.388       .  A
C158        H161   1.064       .  S
C159        C160   1.360       .  A
C159        H162   1.085       .  S
C160       N1524   1.376       .  A
N163        C167   1.347       .  A
N163        C392   1.380       .  A
C164        N619   1.380   1_545  A
C164        C165   1.386   1_545  A
C164        C227   1.562       .  S
C165        C622   1.372       .  A
C165        H168   1.077   1_565  S
C166        C167   1.374       .  A
C166        C393   1.372       .  A
C166        H169   1.082       .  S
C170        C771   1.609       .  S
O171       Ni863   1.921   1_554  S
O171        C181   1.283       .  A
O172       Ni179   1.969       .  S
O172        C182   1.282       .  A
O173       Ni179   1.894   1_554  S
O173        C183   1.276       .  A
O174       Ni863   1.907       .  S
O174        C184   1.270       .  A
O175       Ni864   1.881       .  S
O175        C184   1.282   1_554  A
O176       Ni180   1.869       .  S
O176        C183   1.260       .  A
O177       Ni180   1.999       .  S
O177        C182   1.296   1_554  A
O178       Ni864   1.921       .  S
O178        C181   1.277       .  A
Ni179      O1539   1.921   1_456  S
Ni179      O1542   1.907   1_455  S
Ni179      Ni180   2.339   1_556  S
Ni180      O1543   1.881   1_455  S
Ni180      O1546   1.921   1_455  S
C181        C203   1.507       .  S
C182        N206   1.495       .  S
C183        C217   1.443       .  S
C184        N220   1.451       .  S
O185       Ni193   1.950   1_454  S
O185        C195   1.298       .  A
O186      Ni1105   1.909       .  S
O186        C196   1.270       .  A
O187       Ni877   1.930   1_554  S
O187        C197   1.283       .  A
O188       Ni421   1.850   1_455  S
O188        C198   1.263       .  A
O189       Ni194   1.864   1_455  S
O189        C198   1.268   1_554  A
O190       Ni878   1.918       .  S
O190        C425   1.273       .  A
O191       Ni878   1.949       .  S
O191        C196   1.290   1_554  A
O192       Ni194   1.986   1_455  S
O192        C423   1.287       .  A
Ni193      O2010   1.909       .  S
Ni193      O1555   1.930   1_556  S
Ni193       O644   1.850   1_655  S
Ni193      Ni650   2.355   1_546  S
Ni194      O1558   1.918       .  S
Ni194      O1559   1.949       .  S
Ni194      Ni421   2.355   1_554  S
C195        O648   1.287       .  A
C195        N213   1.506       .  S
C196        C224   1.509       .  S
C197        O646   1.273       .  A
C197        N199   1.439       .  S
C198        C210   1.430       .  S
N199        C203   1.365       .  A
N199        C200   1.395       .  A
C200        C201   1.400       .  A
C200        C227   1.592       .  S
C201        C202   1.377       .  A
C201        H204   1.066       .  S
C202        C203   1.363       .  A
C202        H205   1.083       .  S
N206        C210   1.357       .  A
N206        C207   1.414       .  A
C207        C208   1.399       .  A
C207        C228   1.605       .  S
C208        C209   1.337       .  A
C208        H211   1.056       .  S
C209        C210   1.348       .  A
C209        H440   1.083       .  S
H212        C665   1.083   1_545  S
N213        C217   1.334       .  A
N213        C214   1.391       .  A
C214        C215   1.392       .  A
C214        C227   1.626       .  S
C215        C216   1.368       .  A
C215        H218   1.082       .  S
C216        C217   1.367       .  A
C216        H219   1.071       .  S
N220        C224   1.354       .  A
N220        C221   1.386       .  A
C221        C222   1.397       .  A
C221        C228   1.623       .  S
C222        C223   1.385       .  A
C222        H225   1.075       .  S
C223        C224   1.369       .  A
C223        H454   1.076       .  S
H226        C679   1.076       .  S
O229       Ni237   1.959   1_655  S
O229        C239   1.300       .  A
O230       Ni237   1.912       .  S
O230        C240   1.271       .  A
O231       Ni237   1.934   1_655  S
O231        C241   1.284       .  A
O232       Ni237   1.849       .  S
O232        C242   1.263       .  A
O233       Ni238   1.871       .  S
O233        C242   1.270       .  A
O234       Ni238   1.920       .  S
O234        C241   1.275   1_455  A
O235       Ni238   1.945       .  S
O235        C240   1.287       .  A
O236       Ni238   1.989       .  S
O236        C239   1.287   1_455  A
Ni237      Ni238   2.351       .  S
C240        C275   1.507       .  S
C241       N1625   1.442       .  S
O243       Ni251   1.871       .  S
O243        C253   1.261       .  A
O244       Ni251   1.885       .  S
O244        C254   1.284       .  A
O245       Ni251   1.924       .  S
O245        C255   1.276       .  A
O246       Ni251   2.004       .  S
O246        C256   1.298       .  A
O247       Ni252   1.969       .  S
O247        C256   1.283       .  A
O248       Ni252   1.923       .  S
O248        C255   1.283       .  A
O249       Ni252   1.906       .  S
O249        C254   1.270       .  A
O250       Ni252   1.890       .  S
O250        C253   1.273       .  A
Ni251      Ni252   2.337       .  S
C254        N271   1.454       .  S
C255        C261   1.510       .  S
N257        C925   1.442       .  S
N257        C261   1.366       .  A
N257        C258   1.397       .  A
C258        C259   1.399       .  A
C258        C285   1.589       .  S
C259        C260   1.379       .  A
C259        H262   1.068       .  S
C260        C261   1.366       .  A
C260        H263   1.083       .  S
N264        C467   1.512       .  S
N264       C1636   1.335       .  A
N264       C1633   1.396       .  A
C265        N948   1.396       .  A
C265        C266   1.392       .  A
C265        C285   1.633       .  S
C266        C267   1.368       .  A
C266        H269   1.081       .  S
C267        C268   1.364       .  A
C267        H270   1.071       .  S
C268        C481   1.441       .  S
C268        N948   1.335       .  A
N271        C275   1.356       .  A
N271        C272   1.388       .  A
C272        C273   1.396       .  A
C272        C456   1.626       .  S
C273        C274   1.383       .  A
C273        H276   1.071       .  S
C274        C275   1.369       .  A
C274        H277   1.076       .  S
N278        C484   1.496       .  S
N278        C282   1.359       .  A
N278        C279   1.418       .  A
C279        C280   1.398       .  A
C279        C456   1.606       .  S
C280        C281   1.338       .  A
C280        H283   1.057       .  S
C281        C282   1.349       .  A
C281        H284   1.084       .  S
C282        C470   1.436       .  S
C285       C1013   1.566       .  S
C285        C336   1.577       .  S
O286        C296   1.308       .  A
O287       Ni294   1.951       .  S
O287        C297   1.281       .  A
O288        C298   1.261       .  A
O289       Ni294   1.854       .  S
O289        C299   1.256       .  A
O290       Ni295   1.944       .  S
O290        C299   1.290       .  A
O291       Ni295   1.931       .  S
O291        C526   1.284       .  A
O292       Ni295   1.917       .  S
O292        C297   1.275       .  A
O293       Ni295   1.962       .  S
O293        C524   1.273       .  A
Ni294       O514   2.005       .  S
Ni294       O516   1.881       .  S
Ni294      Ni295   2.349       .  S
C296        N314   1.518       .  S
C297        N335   1.450       .  S
C298        N321   1.421       .  S
C299        C332   1.475       .  S
O300       Ni308   1.885       .  S
O300        C310   1.272       .  A
O301       Ni308   1.932       .  S
O301        C311   1.289       .  A
O302       Ni308   1.904       .  S
O302        C312   1.271       .  A
O303       Ni308   1.923       .  S
O303        C313   1.276       .  A
O304       Ni309   1.951       .  S
O304        C313   1.289       .  A
O305       Ni309   1.976       .  S
O305        C312   1.298       .  A
O306       Ni309   1.862       .  S
O306        C311   1.262       .  A
O307       Ni309   1.843       .  S
O307        C310   1.261       .  A
Ni308      Ni309   2.371       .  S
C310        C318   1.410       .  S
C311        C339   1.479       .  S
C312        C325   1.534       .  S
C313        N328   1.450       .  S
N314        C318   1.358       .  A
N314        C315   1.410       .  A
C315        C316   1.388   1_455  A
C315       C1766   1.609   1_455  S
C316        C317   1.343       .  A
C316       H1687   1.068       .  S
C317        C318   1.348   1_655  A
C317        H320   1.070       .  S
H319       C1000   1.068       .  S
N321        C325   1.361       .  A
N321        C322   1.391       .  A
C322        C323   1.394       .  A
C322        C398   1.641       .  S
C323        C324   1.382       .  A
C323        H326   1.067       .  S
C324        C325   1.352       .  A
C324        H327   1.073       .  S
N328        C332   1.340       .  A
N328        C329   1.375       .  A
C329        C330   1.386       .  A
C329       C1653   1.566   1_455  S
C330        C331   1.378       .  A
C330        H333   1.075       .  S
C331        C332   1.376       .  A
C331        H562   1.082       .  S
N335        C339   1.357       .  A
N335        C336   1.396       .  A
C336        C337   1.403       .  A
C337        C338   1.361       .  A
C337        H340   1.076       .  S
C338        C339   1.356       .  A
C338        H341   1.083       .  S
O342       Ni350   1.991       .  S
O342        C352   1.283       .  A
O343       Ni350   1.966       .  S
O343        C353   1.290       .  A
O344       Ni350   1.919       .  S
O344        C354   1.280       .  A
O345       Ni350   1.914       .  S
O345        C355   1.279       .  A
O346       Ni351   1.909       .  S
O346        C355   1.271       .  A
O347       Ni351   1.875       .  S
O347        C354   1.264       .  A
O348       Ni351   1.932       .  S
O348        C353   1.281       .  A
O349       Ni351   1.988       .  S
O349        C352   1.301       .  A
Ni350      Ni351   2.356       .  S
C352        N384   1.529       .  S
C353        N391   1.461       .  S
C354        C381   1.474       .  S
C355        N370   1.428       .  S
O356       Ni364   1.877       .  S
O356        C366   1.266       .  A
O357       Ni364   1.918       .  S
O357        C367   1.281       .  A
O358       Ni364   1.905       .  S
O358        C368   1.272       .  A
O359       Ni364   1.919       .  S
O359        C369   1.268       .  A
O360       Ni365   1.975       .  S
O360        C369   1.288       .  A
O361       Ni365   1.978       .  S
O361        C368   1.299       .  A
O362       Ni365   1.861       .  S
O362        C367   1.259       .  A
O363      Ni1049   1.834       .  S
O363       C1050   1.260       .  A
Ni364      Ni365   2.348       .  S
Ni365      O1731   1.834       .  S
C366       O1731   1.260       .  A
C366        C388   1.409       .  S
C367        C395   1.463       .  S
C368        C374   1.541       .  S
C369        N377   1.458       .  S
N370       C1058   1.375       .  A
N370        C599   1.393       .  A
C371       C1056   1.401       .  A
C371        C398   1.634       .  S
C372       C1739   1.401   1_455  A
C372        H375   1.080       .  S
C373        C600   1.379       .  A
C373        C374   1.370       .  A
C373        H376   1.080       .  S
C374       N1738   1.375       .  A
N377        C381   1.362       .  A
N377        C378   1.393       .  A
C378        C379   1.403       .  A
C378        C455   1.570       .  S
C379        C380   1.357       .  A
C379        H382   1.078       .  S
C380        C381   1.365       .  A
C380        H383   1.083       .  S
N384       C1072   1.376       .  A
N384        C385   1.421       .  A
C385       C1070   1.388       .  A
C385        C398   1.614       .  S
C386       C1753   1.388       .  A
C386        C387   1.332       .  A
C386        H389   1.064       .  S
C387        C388   1.360       .  A
C387        H390   1.085       .  S
C388       N1752   1.376       .  A
N391        C395   1.347       .  A
N391        C620   1.380       .  A
C392        C393   1.386       .  A
C392        C455   1.562       .  S
C393        H396   1.077       .  S
C394        C621   1.372       .  A
C394        C395   1.374       .  A
C394        H397   1.082       .  S
C398        C999   1.609       .  S
O399      Ni1091   1.921   1_554  S
O399        C409   1.283       .  A
O400       Ni407   1.969       .  S
O400        C410   1.282       .  A
O401       Ni407   1.894   1_554  S
O401        C411   1.276       .  A
O402      Ni1091   1.907       .  S
O402        C412   1.270       .  A
O403      Ni1092   1.881       .  S
O403        C412   1.282   1_554  A
O404       Ni408   1.869       .  S
O404        C411   1.260       .  A
O405       Ni408   1.999       .  S
O405        C410   1.296   1_554  A
O406      Ni1092   1.921       .  S
O406        C409   1.277       .  A
Ni407      O1767   1.921   1_456  S
Ni407      O1770   1.907   1_455  S
Ni407      Ni408   2.339   1_556  S
Ni408      O1771   1.881   1_455  S
Ni408      O1774   1.921   1_455  S
C409        C431   1.507       .  S
C410        N434   1.495       .  S
C411        C445   1.443       .  S
C412        N448   1.451       .  S
O413       Ni421   1.950   1_454  S
O413        C423   1.298       .  A
O414      Ni1333   1.909       .  S
O414        C424   1.270       .  A
O415      Ni1105   1.930   1_554  S
O415        C425   1.283       .  A
O416       Ni649   1.850   1_455  S
O416        C426   1.263       .  A
O417       Ni422   1.864   1_455  S
O417        C426   1.268   1_554  A
O418      Ni1106   1.918       .  S
O418        C653   1.273       .  A
O419      Ni1106   1.949       .  S
O419        C424   1.290   1_554  A
O420       Ni422   1.986   1_455  S
O420        C651   1.287       .  A
Ni421      O1554   1.909       .  S
Ni421      O1783   1.930   1_556  S
Ni422      O1786   1.918       .  S
Ni422      O1787   1.949       .  S
Ni422      Ni649   2.355   1_554  S
C423        N441   1.506       .  S
C424        C452   1.509       .  S
C425        N427   1.439       .  S
C426        C438   1.430       .  S
N427        C431   1.365       .  A
N427        C428   1.395       .  A
C428        C429   1.400       .  A
C428        C455   1.592       .  S
C429        C430   1.377       .  A
C429        H432   1.066       .  S
C430        C431   1.363       .  A
C430        H433   1.083       .  S
N434        C438   1.357       .  A
N434        C435   1.414       .  A
C435        C436   1.399       .  A
C435        C456   1.605       .  S
C436        C437   1.337       .  A
C436        H439   1.056       .  S
C437        C438   1.348       .  A
C437        H668   1.083       .  S
N441        C445   1.334       .  A
N441        C442   1.391       .  A
C442        C443   1.392       .  A
C442        C455   1.626       .  S
C443        C444   1.368       .  A
C443        H446   1.082       .  S
C444        C445   1.367       .  A
C444        H447   1.071       .  S
N448        C452   1.354       .  A
N448        C449   1.386       .  A
C449        C450   1.397       .  A
C449        C456   1.623       .  S
C450        C451   1.385       .  A
C450        H453   1.075       .  S
C451        C452   1.369       .  A
C451        H682   1.076       .  S
O457       Ni465   1.959   1_655  S
O457        C467   1.300       .  A
O458       Ni465   1.912       .  S
O458        C468   1.271       .  A
O459       Ni465   1.934   1_655  S
O459        C469   1.284       .  A
O460       Ni465   1.849       .  S
O460        C470   1.263       .  A
O461       Ni466   1.871       .  S
O461        C470   1.270       .  A
O462       Ni466   1.920       .  S
O462        C469   1.275   1_455  A
O463       Ni466   1.945       .  S
O463        C468   1.287       .  A
O464       Ni466   1.989       .  S
O464        C467   1.287   1_455  A
Ni465      Ni466   2.351       .  S
C468        C503   1.507       .  S
C469       N1853   1.442       .  S
O471       Ni479   1.871       .  S
O471        C481   1.261       .  A
O472       Ni479   1.885       .  S
O472        C482   1.284       .  A
O473       Ni479   1.924       .  S
O473        C483   1.276       .  A
O474       Ni479   2.004       .  S
O474        C484   1.298       .  A
O475       Ni480   1.969       .  S
O475        C484   1.283       .  A
O476       Ni480   1.923       .  S
O476        C483   1.283       .  A
O477       Ni480   1.906       .  S
O477        C482   1.270       .  A
O478       Ni480   1.890       .  S
O478        C481   1.273       .  A
Ni479      Ni480   2.337       .  S
C482        N499   1.454       .  S
C483        C489   1.510       .  S
N485       C1153   1.442       .  S
N485        C489   1.366       .  A
N485        C486   1.397       .  A
C486        C487   1.399       .  A
C486        C513   1.589       .  S
C487        C488   1.379       .  A
C487        H490   1.068       .  S
C488        C489   1.366       .  A
C488        H491   1.083       .  S
N492       C1864   1.335   1_565  A
N492       C1861   1.396       .  A
C493       N1176   1.396       .  A
C493        C494   1.392       .  A
C493        C513   1.633       .  S
C494        C495   1.368   1_565  A
C494        H497   1.081       .  S
C495        C496   1.364       .  A
C495        H498   1.070       .  S
C496       N1176   1.335   1_545  A
N499        C503   1.356       .  A
N499        C500   1.388       .  A
C500        C501   1.396       .  A
C500        C684   1.626       .  S
C501        C502   1.383       .  A
C501        H504   1.071       .  S
C502        C503   1.369       .  A
C502        H505   1.076       .  S
N506        C510   1.359       .  A
N506        C507   1.418       .  A
C507        C508   1.398       .  A
C507        C684   1.606       .  S
C508        C509   1.338       .  A
C508        H511   1.057       .  S
C509        C510   1.349       .  A
C509        H512   1.084       .  S
C513       C1241   1.566       .  S
C513        C564   1.577       .  S
O514        C524   1.308       .  A
O515       Ni522   1.951   1_565  S
O515        C525   1.281       .  A
O516        C526   1.261       .  A
O517       Ni522   1.854   1_565  S
O517        C527   1.256       .  A
O518       Ni523   1.944       .  S
O518        C527   1.290       .  A
O519       Ni523   1.931   1_545  S
O520       Ni523   1.917       .  S
O520        C525   1.275       .  A
O521       Ni523   1.962   1_545  S
Ni522      Ni523   2.349   1_545  S
C524        N542   1.518       .  S
C525        N563   1.450       .  S
C526        N549   1.421       .  S
C527        C560   1.475       .  S
O528       Ni536   1.885       .  S
O528        C538   1.272       .  A
O529       Ni536   1.932       .  S
O529        C539   1.289       .  A
O530       Ni536   1.904       .  S
O530        C540   1.271       .  A
O531       Ni536   1.923       .  S
O531        C541   1.276       .  A
O532       Ni537   1.951       .  S
O532        C541   1.289       .  A
O533       Ni537   1.976       .  S
O533        C540   1.298       .  A
O534       Ni537   1.862       .  S
O534        C539   1.262       .  A
O535       Ni537   1.843       .  S
O535        C538   1.261       .  A
Ni536      Ni537   2.371       .  S
C538        C546   1.410       .  S
C539        C567   1.479       .  S
C540        C553   1.534       .  S
C541        N556   1.450       .  S
N542        C546   1.358       .  A
N542        C543   1.410       .  A
C543        C544   1.388   1_455  A
C543       C1994   1.609   1_455  S
C544        C545   1.343       .  A
C544       H1915   1.068       .  S
C545        C546   1.348   1_655  A
C545        H548   1.070       .  S
H547       C1228   1.068       .  S
N549        C553   1.361       .  A
N549        C550   1.391       .  A
C550        C551   1.394       .  A
C550        C626   1.641       .  S
C551        C552   1.382       .  A
C551        H554   1.067       .  S
C552        C553   1.352       .  A
C552        H555   1.073       .  S
N556        C560   1.340       .  A
N556        C557   1.375       .  A
C557        C558   1.386       .  A
C557       C1881   1.566   1_455  S
C558        C559   1.378       .  A
C558        H561   1.075       .  S
C559        C560   1.376       .  A
N563        C567   1.357       .  A
N563        C564   1.396       .  A
C564        C565   1.403       .  A
C565        C566   1.361       .  A
C565        H568   1.076       .  S
C566        C567   1.356       .  A
C566        H569   1.083       .  S
O570       Ni578   1.991       .  S
O570        C580   1.283       .  A
O571       Ni578   1.966       .  S
O571        C581   1.290       .  A
O572       Ni578   1.919       .  S
O572        C582   1.280       .  A
O573       Ni578   1.914       .  S
O573        C583   1.279       .  A
O574       Ni579   1.909       .  S
O574        C583   1.271       .  A
O575       Ni579   1.876       .  S
O575        C582   1.264       .  A
O576       Ni579   1.932       .  S
O576        C581   1.281       .  A
O577       Ni579   1.988       .  S
O577        C580   1.301       .  A
Ni578      Ni579   2.356       .  S
C580        N612   1.529       .  S
C581        N619   1.461       .  S
C582        C609   1.474       .  S
C583        N598   1.428       .  S
O584       Ni592   1.877       .  S
O584        C594   1.266       .  A
O585       Ni592   1.918       .  S
O585        C595   1.281       .  A
O586       Ni592   1.905       .  S
O586        C596   1.272       .  A
O587       Ni592   1.919       .  S
O587        C597   1.268       .  A
O588       Ni593   1.975       .  S
O588        C597   1.288       .  A
O589       Ni593   1.978       .  S
O589        C596   1.299       .  A
O590       Ni593   1.861       .  S
O590        C595   1.259       .  A
O591      Ni1277   1.834       .  S
O591       C1278   1.260       .  A
Ni592      Ni593   2.348       .  S
Ni593      O1959   1.834       .  S
C594       O1959   1.260       .  A
C594        C616   1.409       .  S
C595        C623   1.463       .  S
C596        C602   1.541       .  S
C597        N605   1.458       .  S
N598       C1286   1.375       .  A
C599       C1284   1.401       .  A
C599        C626   1.634       .  S
C600       C1967   1.401   1_455  A
C600        H603   1.080       .  S
C601        C602   1.370       .  A
C601        H604   1.080       .  S
C602       N1966   1.375       .  A
N605        C609   1.362       .  A
N605        C606   1.393       .  A
C606        C607   1.403       .  A
C606        C683   1.570       .  S
C607        C608   1.357       .  A
C607        H610   1.078       .  S
C608        C609   1.365       .  A
C608        H611   1.083       .  S
N612       C1300   1.376       .  A
N612        C613   1.421       .  A
C613       C1298   1.388       .  A
C613        C626   1.614       .  S
C614       C1981   1.388       .  A
C614        C615   1.332       .  A
C614        H617   1.064       .  S
C615        C616   1.360       .  A
C615        H618   1.085       .  S
C616       N1980   1.376       .  A
N619        C623   1.347       .  A
C620        C621   1.386       .  A
C620        C683   1.562       .  S
C621        H624   1.077       .  S
C622        C623   1.374       .  A
C622        H625   1.082       .  S
C626       C1227   1.609       .  S
O627      Ni1319   1.921   1_554  S
O627        C637   1.283       .  A
O628       Ni635   1.969       .  S
O628        C638   1.282       .  A
O629       Ni635   1.894   1_554  S
O629        C639   1.276       .  A
O630      Ni1319   1.907       .  S
O630        C640   1.270       .  A
O631      Ni1320   1.881       .  S
O631        C640   1.282   1_554  A
O632       Ni636   1.869       .  S
O632        C639   1.260       .  A
O633       Ni636   1.999       .  S
O633        C638   1.296   1_554  A
O634      Ni1320   1.921       .  S
O634        C637   1.277       .  A
Ni635      O1995   1.921   1_456  S
Ni635      O1998   1.907   1_455  S
Ni635      Ni636   2.339   1_556  S
Ni636      O1999   1.881   1_455  S
Ni636      O2002   1.921   1_455  S
C637        C659   1.507       .  S
C638        N662   1.495       .  S
C639        C673   1.443       .  S
C640        N676   1.451       .  S
O641       Ni649   1.950   1_454  S
O641        C651   1.298       .  A
O642       Ni877   1.909       .  S
O642        C652   1.270   1_545  A
O643      Ni1333   1.930   1_554  S
O643        C653   1.283       .  A
O644        C654   1.263   1_545  A
O645       Ni650   1.864   1_455  S
O645        C654   1.268   1_554  A
O646      Ni1334   1.918   1_545  S
O647      Ni1334   1.949       .  S
O647        C652   1.290   1_554  A
O648       Ni650   1.986   1_445  S
Ni649      O1782   1.909       .  S
Ni649      O2011   1.930   1_556  S
Ni650      O2014   1.918   1_565  S
Ni650      O2015   1.949       .  S
C651        N669   1.506       .  S
C652        C680   1.509       .  S
C653        N655   1.439       .  S
C654        C666   1.430       .  S
N655        C659   1.365       .  A
N655        C656   1.395       .  A
C656        C657   1.400       .  A
C656        C683   1.592       .  S
C657        C658   1.377       .  A
C657        H660   1.066       .  S
C658        C659   1.363       .  A
C658        H661   1.083       .  S
N662        C666   1.357       .  A
N662        C663   1.414       .  A
C663        C664   1.399       .  A
C663        C684   1.605       .  S
C664        C665   1.337       .  A
C664        H667   1.056       .  S
C665        C666   1.348       .  A
N669        C673   1.334       .  A
N669        C670   1.391       .  A
C670        C671   1.392       .  A
C670        C683   1.626       .  S
C671        C672   1.368       .  A
C671        H674   1.082       .  S
C672        C673   1.367       .  A
C672        H675   1.071       .  S
N676        C680   1.354       .  A
N676        C677   1.386       .  A
C677        C678   1.397       .  A
C677        C684   1.623       .  S
C678        C679   1.385       .  A
C678        H681   1.075       .  S
C679        C680   1.369       .  A
O685       Ni693   1.959       .  S
O685        C695   1.300       .  A
O686       Ni693   1.912       .  S
O686        C696   1.271       .  A
O687       Ni693   1.934       .  S
O687        C697   1.284       .  A
O688       Ni693   1.849       .  S
O688        C698   1.263       .  A
O689       Ni694   1.871       .  S
O689        C698   1.270       .  A
O690       Ni694   1.920       .  S
O690        C697   1.275       .  A
O691       Ni694   1.945       .  S
O691        C696   1.287       .  A
O692       Ni694   1.989       .  S
O692        C695   1.287       .  A
Ni693      Ni694   2.351       .  S
C695       N1176   1.512   1_545  S
C696        C731   1.507       .  S
C698       C1194   1.436   1_545  S
O699       Ni707   1.871       .  S
O699        C709   1.261       .  A
O700       Ni707   1.885       .  S
O700        C710   1.284       .  A
O701       Ni707   1.924       .  S
O701        C711   1.276       .  A
O702       Ni707   2.004       .  S
O702        C712   1.298       .  A
O703       Ni708   1.969       .  S
O703        C712   1.283       .  A
O704       Ni708   1.923       .  S
O704        C711   1.283       .  A
O705       Ni708   1.906       .  S
O705        C710   1.270       .  A
O706       Ni708   1.890       .  S
O706        C709   1.273       .  A
Ni707      Ni708   2.337       .  S
C709       C1180   1.441       .  S
C710        N727   1.454       .  S
C711        C717   1.510       .  S
C712       N1190   1.496   1_545  S
N713       C1381   1.442       .  S
N713        C717   1.366       .  A
N713        C714   1.397       .  A
C714        C715   1.399       .  A
C714        C741   1.589       .  S
C715        C716   1.379       .  A
C715        H718   1.068       .  S
C716        C717   1.366       .  A
C716        H719   1.083       .  S
N720        C923   1.512       .  S
C721       N1404   1.396       .  A
C721        C722   1.392       .  A
C721        C741   1.633       .  S
C722        C723   1.368       .  A
C722        H725   1.081       .  S
C723        C724   1.364       .  A
C723        H726   1.071       .  S
C724        C937   1.441       .  S
C724       N1404   1.335       .  A
N727        C731   1.356       .  A
N727        C728   1.388       .  A
C728        C729   1.396       .  A
C728        C912   1.626       .  S
C729        C730   1.383       .  A
C729        H732   1.071       .  S
C730        C731   1.369       .  A
C730        H733   1.076       .  S
N734        C940   1.496       .  S
N734        C738   1.359       .  A
N734        C735   1.418       .  A
C735        C736   1.398       .  A
C735        C912   1.606       .  S
C736        C737   1.338       .  A
C736        H739   1.057       .  S
C737        C738   1.349       .  A
C737        H740   1.084       .  S
C738        C926   1.436       .  S
C741       C1469   1.566       .  S
C741        C792   1.577       .  S
O742      Ni1206   2.005       .  S
O742        C752   1.308       .  A
O743       Ni750   1.951       .  S
O743        C753   1.281       .  A
O744      Ni1206   1.881       .  S
O744        C754   1.261       .  A
O745       Ni750   1.854       .  S
O745        C755   1.256       .  A
O746       Ni751   1.944       .  S
O746        C755   1.290       .  A
O747       Ni751   1.931       .  S
O747        C982   1.284       .  A
O748       Ni751   1.917       .  S
O748        C753   1.275       .  A
O749       Ni751   1.962       .  S
O749        C980   1.273       .  A
Ni750       O970   2.005       .  S
Ni750       O972   1.881       .  S
Ni750      Ni751   2.349       .  S
C752       O1205   1.273       .  A
C752        N770   1.518       .  S
C753        N791   1.450       .  S
C754       O1203   1.284       .  A
C754        N777   1.421       .  S
C755        C788   1.475       .  S
O756       Ni764   1.885       .  S
O756        C766   1.272       .  A
O757       Ni764   1.932       .  S
O757        C767   1.289       .  A
O758       Ni764   1.904       .  S
O758        C768   1.271       .  A
O759       Ni764   1.923       .  S
O759        C769   1.276       .  A
O760       Ni765   1.951       .  S
O760        C769   1.289       .  A
O761       Ni765   1.976       .  S
O761        C768   1.298       .  A
O762       Ni765   1.862       .  S
O762        C767   1.262       .  A
O763       Ni765   1.843       .  S
O763        C766   1.261       .  A
Ni764      Ni765   2.371       .  S
C766        C774   1.410       .  S
C767        C795   1.479       .  S
C768        C781   1.534       .  S
C769        N784   1.450       .  S
N770        C774   1.358       .  A
N770        C771   1.410       .  A
C771        C772   1.388       .  A
C772        C773   1.343       .  A
C773        C774   1.348       .  A
C773        H776   1.070       .  S
H775       C1456   1.068       .  S
N777        C781   1.361       .  A
N777        C778   1.391       .  A
C778        C779   1.394       .  A
C778        C854   1.641       .  S
C779        C780   1.382       .  A
C779        H782   1.067       .  S
C780        C781   1.352       .  A
C780        H783   1.073       .  S
N784        C788   1.340       .  A
N784        C785   1.375       .  A
C785        C786   1.386       .  A
C786        C787   1.378       .  A
C786        H789   1.075       .  S
C787        C788   1.376       .  A
C787       H1018   1.082       .  S
H790       C1243   1.082       .  S
N791        C795   1.357       .  A
N791        C792   1.396       .  A
C792        C793   1.403       .  A
C793        C794   1.361       .  A
C793        H796   1.076       .  S
C794        C795   1.356       .  A
C794        H797   1.083       .  S
O798       Ni806   1.991       .  S
O798        C808   1.283       .  A
O799       Ni806   1.966       .  S
O799        C809   1.290       .  A
O800       Ni806   1.919       .  S
O800        C810   1.280       .  A
O801       Ni806   1.914       .  S
O801        C811   1.279       .  A
O802       Ni807   1.909       .  S
O802        C811   1.271       .  A
O803       Ni807   1.875       .  S
O803        C810   1.264       .  A
O804       Ni807   1.932       .  S
O804        C809   1.281       .  A
O805       Ni807   1.988       .  S
O805        C808   1.301       .  A
Ni806      Ni807   2.356       .  S
C808        N840   1.529       .  S
C809        N847   1.461       .  S
C810        C837   1.474       .  S
C811        N826   1.428       .  S
O812       Ni820   1.877       .  S
O812        C822   1.266       .  A
O813       Ni820   1.918       .  S
O813        C823   1.281       .  A
O814       Ni820   1.905       .  S
O814        C824   1.272       .  A
O815       Ni820   1.919       .  S
O815        C825   1.268       .  A
O816       Ni821   1.975       .  S
O816        C825   1.288       .  A
O817       Ni821   1.978       .  S
O817        C824   1.299       .  A
O818       Ni821   1.861       .  S
O818        C823   1.259       .  A
O819      Ni1505   1.834       .  S
O819       C1506   1.260       .  A
Ni820      Ni821   2.348       .  S
C822        C844   1.409       .  S
C823        C851   1.463       .  S
C824        C830   1.541       .  S
C825        N833   1.458       .  S
N826       C1514   1.375       .  A
N826       C1055   1.393       .  A
C827       N1282   1.393       .  A
C827       C1512   1.401       .  A
C827        C854   1.634   1_565  S
C828       C1285   1.379       .  A
C828        H831   1.080       .  S
C829       C1056   1.379       .  A
C829        C830   1.370       .  A
C829        H832   1.080       .  S
N833        C837   1.362       .  A
N833        C834   1.393       .  A
C834        C835   1.403       .  A
C834        C911   1.570       .  S
C835        C836   1.357       .  A
C835        H838   1.078       .  S
C836        C837   1.365       .  A
C836        H839   1.083       .  S
N840       C1528   1.376       .  A
N840        C841   1.421       .  A
C841       C1526   1.388       .  A
C841        C854   1.614       .  S
C842        C843   1.332       .  A
C842        H845   1.064       .  S
C843        C844   1.360       .  A
C843        H846   1.085       .  S
N847        C851   1.347       .  A
N847       C1076   1.380       .  A
C848       N1303   1.380   1_545  A
C848        C849   1.386   1_545  A
C848        C911   1.562       .  S
C849       C1306   1.372       .  A
C849        H852   1.077   1_565  S
C850       C1077   1.372       .  A
C850        C851   1.374       .  A
C850        H853   1.082       .  S
C854       C1455   1.609       .  S
O855      Ni1547   1.921   1_554  S
O855        C865   1.283       .  A
O856       Ni863   1.969       .  S
O856        C866   1.282       .  A
O857       Ni863   1.894   1_554  S
O857        C867   1.276       .  A
O858      Ni1547   1.907       .  S
O858        C868   1.270       .  A
O859      Ni1548   1.881       .  S
O859        C868   1.282   1_554  A
O860       Ni864   1.869       .  S
O860        C867   1.260       .  A
O861       Ni864   1.999       .  S
O861        C866   1.296   1_554  A
O862      Ni1548   1.921       .  S
O862        C865   1.277       .  A
Ni863      Ni864   2.339   1_556  S
C865        C887   1.507       .  S
C866        N890   1.495       .  S
C867        C901   1.443       .  S
C868        N904   1.451       .  S
O869       Ni877   1.950   1_554  S
O869        C879   1.298       .  A
O870      Ni1789   1.909       .  S
O870        C880   1.270       .  A
O871      Ni1561   1.930   1_554  S
O871        C881   1.283       .  A
O872      Ni1105   1.850       .  S
O872        C882   1.263       .  A
O873       Ni878   1.864       .  S
O873        C882   1.268   1_554  A
O874      Ni1562   1.918       .  S
O874       C1109   1.273       .  A
O875      Ni1562   1.949       .  S
O875        C880   1.290   1_554  A
O876       Ni878   1.986       .  S
O876       C1107   1.287       .  A
Ni877      O1328   1.850       .  S
Ni877     Ni1334   2.355   1_546  S
Ni878     Ni1105   2.355   1_554  S
C879       O1332   1.287       .  A
C879        N897   1.506       .  S
C880        C908   1.509       .  S
C881       O1330   1.273       .  A
C881        N883   1.439       .  S
C882        C894   1.430       .  S
N883        C887   1.365       .  A
N883        C884   1.395       .  A
C884        C885   1.400       .  A
C884        C911   1.592       .  S
C885        C886   1.377       .  A
C885        H888   1.066       .  S
C886        C887   1.363       .  A
C886        H889   1.083       .  S
N890        C894   1.357       .  A
N890        C891   1.414       .  A
C891        C892   1.399       .  A
C891        C912   1.605       .  S
C892        C893   1.337       .  A
C892        H895   1.056       .  S
C893        C894   1.348       .  A
C893       H1124   1.083       .  S
H896       C1349   1.083   1_545  S
N897        C901   1.334       .  A
N897        C898   1.391       .  A
C898        C899   1.392       .  A
C898        C911   1.626       .  S
C899        C900   1.368       .  A
C899        H902   1.082       .  S
C900        C901   1.367       .  A
C900        H903   1.071       .  S
N904        C908   1.354       .  A
N904        C905   1.386       .  A
C905        C906   1.397       .  A
C905        C912   1.623       .  S
C906        C907   1.385       .  A
C906        H909   1.075       .  S
C907        C908   1.369       .  A
C907       H1138   1.076       .  S
H910       C1363   1.076       .  S
O913       Ni921   1.959       .  S
O913        C923   1.300       .  A
O914       Ni921   1.912       .  S
O914        C924   1.271       .  A
O915       Ni921   1.934       .  S
O915        C925   1.284       .  A
O916       Ni921   1.849       .  S
O916        C926   1.263       .  A
O917       Ni922   1.871       .  S
O917        C926   1.270       .  A
O918       Ni922   1.920       .  S
O918        C925   1.275       .  A
O919       Ni922   1.945       .  S
O919        C924   1.287       .  A
O920       Ni922   1.989       .  S
O920        C923   1.287       .  A
Ni921      Ni922   2.351       .  S
C924        C959   1.507       .  S
O927       Ni935   1.871       .  S
O927        C937   1.261       .  A
O928       Ni935   1.885       .  S
O928        C938   1.284       .  A
O929       Ni935   1.924       .  S
O929        C939   1.276       .  A
O930       Ni935   2.004       .  S
O930        C940   1.298       .  A
O931       Ni936   1.969       .  S
O931        C940   1.283       .  A
O932       Ni936   1.923       .  S
O932        C939   1.283       .  A
O933       Ni936   1.906       .  S
O933        C938   1.270       .  A
O934       Ni936   1.890       .  S
O934        C937   1.273       .  A
Ni935      Ni936   2.337       .  S
C938        N955   1.454       .  S
C939        C945   1.510       .  S
N941       C1609   1.442       .  S
N941        C945   1.366       .  A
N941        C942   1.397       .  A
C942        C943   1.399       .  A
C942        C969   1.589       .  S
C943        C944   1.379       .  A
C943        H946   1.068       .  S
C944        C945   1.366       .  A
C944        H947   1.083       .  S
N948       C1151   1.512       .  S
C949       N1632   1.396       .  A
C949        C950   1.392       .  A
C949        C969   1.633       .  S
C950        C951   1.368       .  A
C950        H953   1.081       .  S
C951        C952   1.364       .  A
C951        H954   1.071       .  S
C952       C1165   1.441       .  S
C952       N1632   1.335       .  A
N955        C959   1.356       .  A
N955        C956   1.388       .  A
C956        C957   1.396       .  A
C956       C1140   1.626       .  S
C957        C958   1.383       .  A
C957        H960   1.071       .  S
C958        C959   1.369       .  A
C958        H961   1.076       .  S
N962       C1168   1.496       .  S
N962        C966   1.359       .  A
N962        C963   1.418       .  A
C963        C964   1.398       .  A
C963       C1140   1.606       .  S
C964        C965   1.338       .  A
C964        H967   1.057       .  S
C965        C966   1.349       .  A
C965        H968   1.084       .  S
C966       C1154   1.436       .  S
C969       C1697   1.566       .  S
C969       C1020   1.577       .  S
O970        C980   1.308       .  A
O971       Ni978   1.951       .  S
O971        C981   1.281       .  A
O972        C982   1.261       .  A
O973       Ni978   1.854       .  S
O973        C983   1.256       .  A
O974       Ni979   1.944       .  S
O974        C983   1.290       .  A
O975       Ni979   1.931       .  S
O975       C1210   1.284       .  A
O976       Ni979   1.917       .  S
O976        C981   1.275       .  A
O977       Ni979   1.962       .  S
O977       C1208   1.273       .  A
Ni978      O1198   2.005       .  S
Ni978      O1200   1.881       .  S
Ni978      Ni979   2.349       .  S
C980        N998   1.518       .  S
C981       N1019   1.450       .  S
C982       N1005   1.421       .  S
C983       C1016   1.475       .  S
O984       Ni992   1.885       .  S
O984        C994   1.272       .  A
O985       Ni992   1.932       .  S
O985        C995   1.289       .  A
O986       Ni992   1.904       .  S
O986        C996   1.271       .  A
O987       Ni992   1.923       .  S
O987        C997   1.276       .  A
O988       Ni993   1.951       .  S
O988        C997   1.289       .  A
O989       Ni993   1.976       .  S
O989        C996   1.298       .  A
O990       Ni993   1.862       .  S
O990        C995   1.262       .  A
O991       Ni993   1.843       .  S
O991        C994   1.261       .  A
Ni992      Ni993   2.371       .  S
C994       C1002   1.410       .  S
C995       C1023   1.479       .  S
C996       C1009   1.534       .  S
C997       N1012   1.450       .  S
N998       C1002   1.358       .  A
N998        C999   1.410       .  A
C999       C1000   1.388       .  A
C1000      C1001   1.343       .  A
C1001      C1002   1.348       .  A
C1001      H1004   1.070       .  S
H1003      C1684   1.068       .  S
N1005      C1009   1.361       .  A
N1005      C1006   1.391       .  A
C1006      C1007   1.394       .  A
C1006      C1082   1.641       .  S
C1007      C1008   1.382       .  A
C1007      H1010   1.067       .  S
C1008      C1009   1.352       .  A
C1008      H1011   1.073       .  S
N1012      C1016   1.340       .  A
N1012      C1013   1.375       .  A
C1013      C1014   1.386       .  A
C1014      C1015   1.378       .  A
C1014      H1017   1.075       .  S
C1015      C1016   1.376       .  A
C1015      H1246   1.082       .  S
N1019      C1023   1.357       .  A
N1019      C1020   1.396       .  A
C1020      C1021   1.403       .  A
C1021      C1022   1.361       .  A
C1021      H1024   1.077       .  S
C1022      C1023   1.356       .  A
C1022      H1025   1.083       .  S
O1026     Ni1034   1.991       .  S
O1026      C1036   1.283       .  A
O1027     Ni1034   1.966       .  S
O1027      C1037   1.290       .  A
O1028     Ni1034   1.919       .  S
O1028      C1038   1.280       .  A
O1029     Ni1034   1.914       .  S
O1029      C1039   1.279       .  A
O1030     Ni1035   1.909       .  S
O1030      C1039   1.271       .  A
O1031     Ni1035   1.875       .  S
O1031      C1038   1.264       .  A
O1032     Ni1035   1.932       .  S
O1032      C1037   1.281       .  A
O1033     Ni1035   1.988       .  S
O1033      C1036   1.301       .  A
Ni1034    Ni1035   2.356       .  S
C1036      N1068   1.529       .  S
C1037      N1075   1.461       .  S
C1038      C1065   1.474       .  S
C1039      N1054   1.428       .  S
O1040     Ni1048   1.877       .  S
O1040      C1050   1.266       .  A
O1041     Ni1048   1.918       .  S
O1041      C1051   1.281       .  A
O1042     Ni1048   1.905       .  S
O1042      C1052   1.272       .  A
O1043     Ni1048   1.919       .  S
O1043      C1053   1.268       .  A
O1044     Ni1049   1.975       .  S
O1044      C1053   1.288       .  A
O1045     Ni1049   1.978       .  S
O1045      C1052   1.299       .  A
O1046     Ni1049   1.861       .  S
O1046      C1051   1.259       .  A
O1047     Ni1733   1.834       .  S
O1047      C1734   1.260       .  A
Ni1048    Ni1049   2.348       .  S
C1050      C1072   1.409       .  S
C1051      C1079   1.463       .  S
C1052      C1058   1.541       .  S
C1053      N1061   1.458       .  S
N1054      C1742   1.375       .  A
N1054      C1283   1.393       .  A
C1055      C1740   1.401       .  A
C1055      C1082   1.634       .  S
C1056      H1059   1.080       .  S
C1057      C1284   1.379       .  A
C1057      C1058   1.370       .  A
C1057      H1060   1.080       .  S
N1061      C1065   1.362       .  A
N1061      C1062   1.393       .  A
C1062      C1063   1.403       .  A
C1062      C1139   1.570       .  S
C1063      C1064   1.357       .  A
C1063      H1066   1.078       .  S
C1064      C1065   1.365       .  A
C1064      H1067   1.083       .  S
N1068      C1756   1.376       .  A
N1068      C1069   1.421       .  A
C1069      C1754   1.388       .  A
C1069      C1082   1.614       .  S
C1070      C1071   1.332       .  A
C1070      H1073   1.064       .  S
C1071      C1072   1.360       .  A
C1071      H1074   1.085       .  S
N1075      C1079   1.347       .  A
N1075      C1304   1.380       .  A
C1076      C1077   1.386       .  A
C1076      C1139   1.562       .  S
C1077      H1080   1.077       .  S
C1078      C1305   1.372       .  A
C1078      C1079   1.374       .  A
C1078      H1081   1.082       .  S
C1082      C1683   1.609       .  S
O1083     Ni1775   1.921   1_554  S
O1083      C1093   1.283       .  A
O1084     Ni1091   1.969       .  S
O1084      C1094   1.282       .  A
O1085     Ni1091   1.894   1_554  S
O1085      C1095   1.276       .  A
O1086     Ni1775   1.907       .  S
O1086      C1096   1.270       .  A
O1087     Ni1776   1.881       .  S
O1087      C1096   1.282   1_554  A
O1088     Ni1092   1.869       .  S
O1088      C1095   1.260       .  A
O1089     Ni1092   1.999       .  S
O1089      C1094   1.296   1_554  A
O1090     Ni1776   1.921       .  S
O1090      C1093   1.277       .  A
Ni1091    Ni1092   2.339   1_556  S
C1093      C1115   1.507       .  S
C1094      N1118   1.495       .  S
C1095      C1129   1.443       .  S
C1096      N1132   1.451       .  S
O1097     Ni1105   1.950   1_554  S
O1097      C1107   1.298       .  A
O1098     Ni2017   1.909       .  S
O1098      C1108   1.270       .  A
O1099     Ni1789   1.930   1_554  S
O1099      C1109   1.283       .  A
O1100     Ni1333   1.850       .  S
O1100      C1110   1.263       .  A
O1101     Ni1106   1.864       .  S
O1101      C1110   1.268   1_554  A
O1102     Ni1790   1.918       .  S
O1102      C1337   1.273       .  A
O1103     Ni1790   1.949       .  S
O1103      C1108   1.290   1_554  A
O1104     Ni1106   1.986       .  S
O1104      C1335   1.287       .  A
Ni1106    Ni1333   2.355   1_554  S
C1107      N1125   1.506       .  S
C1108      C1136   1.509       .  S
C1109      N1111   1.439       .  S
C1110      C1122   1.430       .  S
N1111      C1115   1.365       .  A
N1111      C1112   1.395       .  A
C1112      C1113   1.400       .  A
C1112      C1139   1.592       .  S
C1113      C1114   1.377       .  A
C1113      H1116   1.066       .  S
C1114      C1115   1.363       .  A
C1114      H1117   1.083       .  S
N1118      C1122   1.357       .  A
N1118      C1119   1.414       .  A
C1119      C1120   1.399       .  A
C1119      C1140   1.605       .  S
C1120      C1121   1.337       .  A
C1120      H1123   1.056       .  S
C1121      C1122   1.348       .  A
C1121      H1352   1.083       .  S
N1125      C1129   1.334       .  A
N1125      C1126   1.391       .  A
C1126      C1127   1.392       .  A
C1126      C1139   1.626       .  S
C1127      C1128   1.368       .  A
C1127      H1130   1.082       .  S
C1128      C1129   1.367       .  A
C1128      H1131   1.071       .  S
N1132      C1136   1.354       .  A
N1132      C1133   1.386       .  A
C1133      C1134   1.397       .  A
C1133      C1140   1.623       .  S
C1134      C1135   1.385       .  A
C1134      H1137   1.075       .  S
C1135      C1136   1.369       .  A
C1135      H1366   1.076       .  S
O1141     Ni1149   1.959       .  S
O1141      C1151   1.300       .  A
O1142     Ni1149   1.912       .  S
O1142      C1152   1.271       .  A
O1143     Ni1149   1.934       .  S
O1143      C1153   1.284       .  A
O1144     Ni1149   1.849       .  S
O1144      C1154   1.263       .  A
O1145     Ni1150   1.871       .  S
O1145      C1154   1.270       .  A
O1146     Ni1150   1.920       .  S
O1146      C1153   1.275       .  A
O1147     Ni1150   1.945       .  S
O1147      C1152   1.287       .  A
O1148     Ni1150   1.989       .  S
O1148      C1151   1.287       .  A
Ni1149    Ni1150   2.351       .  S
C1152      C1187   1.507       .  S
O1155     Ni1163   1.871       .  S
O1155      C1165   1.261       .  A
O1156     Ni1163   1.885       .  S
O1156      C1166   1.284       .  A
O1157     Ni1163   1.924       .  S
O1157      C1167   1.276       .  A
O1158     Ni1163   2.004       .  S
O1158      C1168   1.298       .  A
O1159     Ni1164   1.969       .  S
O1159      C1168   1.283       .  A
O1160     Ni1164   1.923       .  S
O1160      C1167   1.283       .  A
O1161     Ni1164   1.906       .  S
O1161      C1166   1.270       .  A
O1162     Ni1164   1.890       .  S
O1162      C1165   1.273       .  A
Ni1163    Ni1164   2.337       .  S
C1166      N1183   1.454       .  S
C1167      C1173   1.510       .  S
N1169      C1837   1.442       .  S
N1169      C1173   1.366       .  A
N1169      C1170   1.397       .  A
C1170      C1171   1.399       .  A
C1170      C1197   1.589       .  S
C1171      C1172   1.379       .  A
C1171      H1174   1.068       .  S
C1172      C1173   1.366       .  A
C1172      H1175   1.083       .  S
C1177      N1860   1.396       .  A
C1177      C1178   1.392       .  A
C1177      C1197   1.633       .  S
C1178      C1179   1.368   1_565  A
C1178      H1181   1.081       .  S
C1179      C1180   1.364       .  A
C1179      H1182   1.071       .  S
C1180      N1860   1.335   1_545  A
N1183      C1187   1.356       .  A
N1183      C1184   1.388       .  A
C1184      C1185   1.396       .  A
C1184      C1368   1.626       .  S
C1185      C1186   1.383       .  A
C1185      H1188   1.071       .  S
C1186      C1187   1.369       .  A
C1186      H1189   1.076       .  S
N1190      C1194   1.359       .  A
N1190      C1191   1.418       .  A
C1191      C1192   1.398       .  A
C1191      C1368   1.606       .  S
C1192      C1193   1.338       .  A
C1192      H1195   1.057       .  S
C1193      C1194   1.349       .  A
C1193      H1196   1.084       .  S
C1197      C1925   1.566       .  S
C1197      C1248   1.577       .  S
O1198      C1208   1.308       .  A
O1199     Ni1206   1.951   1_565  S
O1199      C1209   1.281       .  A
O1200      C1210   1.261       .  A
O1201     Ni1206   1.854   1_565  S
O1201      C1211   1.256       .  A
O1202     Ni1207   1.944       .  S
O1202      C1211   1.290       .  A
O1203     Ni1207   1.931   1_545  S
O1204     Ni1207   1.917       .  S
O1204      C1209   1.275       .  A
O1205     Ni1207   1.962   1_545  S
Ni1206    Ni1207   2.349   1_545  S
C1208      N1226   1.518       .  S
C1209      N1247   1.450       .  S
C1210      N1233   1.421       .  S
C1211      C1244   1.475       .  S
O1212     Ni1220   1.885       .  S
O1212      C1222   1.272       .  A
O1213     Ni1220   1.932       .  S
O1213      C1223   1.289       .  A
O1214     Ni1220   1.904       .  S
O1214      C1224   1.271       .  A
O1215     Ni1220   1.923       .  S
O1215      C1225   1.276       .  A
O1216     Ni1221   1.951       .  S
O1216      C1225   1.289       .  A
O1217     Ni1221   1.976       .  S
O1217      C1224   1.298       .  A
O1218     Ni1221   1.862       .  S
O1218      C1223   1.262       .  A
O1219     Ni1221   1.843       .  S
O1219      C1222   1.261       .  A
Ni1220    Ni1221   2.371       .  S
C1222      C1230   1.410       .  S
C1223      C1251   1.479       .  S
C1224      C1237   1.534       .  S
C1225      N1240   1.450       .  S
N1226      C1230   1.358       .  A
N1226      C1227   1.410       .  A
C1227      C1228   1.388       .  A
C1228      C1229   1.343       .  A
C1229      C1230   1.348       .  A
C1229      H1232   1.070       .  S
H1231      C1912   1.068       .  S
N1233      C1237   1.361       .  A
N1233      C1234   1.391       .  A
C1234      C1235   1.394       .  A
C1234      C1310   1.641       .  S
C1235      C1236   1.382       .  A
C1235      H1238   1.067       .  S
C1236      C1237   1.352       .  A
C1236      H1239   1.073       .  S
N1240      C1244   1.340       .  A
N1240      C1241   1.375       .  A
C1241      C1242   1.386       .  A
C1242      C1243   1.378       .  A
C1242      H1245   1.075       .  S
C1243      C1244   1.376       .  A
N1247      C1251   1.357       .  A
N1247      C1248   1.396       .  A
C1248      C1249   1.403       .  A
C1249      C1250   1.361       .  A
C1249      H1252   1.076       .  S
C1250      C1251   1.356       .  A
C1250      H1253   1.083       .  S
O1254     Ni1262   1.991       .  S
O1254      C1264   1.283       .  A
O1255     Ni1262   1.966       .  S
O1255      C1265   1.290       .  A
O1256     Ni1262   1.919       .  S
O1256      C1266   1.280       .  A
O1257     Ni1262   1.914       .  S
O1257      C1267   1.279       .  A
O1258     Ni1263   1.909       .  S
O1258      C1267   1.271       .  A
O1259     Ni1263   1.876       .  S
O1259      C1266   1.264       .  A
O1260     Ni1263   1.932       .  S
O1260      C1265   1.281       .  A
O1261     Ni1263   1.988       .  S
O1261      C1264   1.301       .  A
Ni1262    Ni1263   2.356       .  S
C1264      N1296   1.529       .  S
C1265      N1303   1.461       .  S
C1266      C1293   1.474       .  S
C1267      N1282   1.428       .  S
O1268     Ni1276   1.877       .  S
O1268      C1278   1.266       .  A
O1269     Ni1276   1.918       .  S
O1269      C1279   1.281       .  A
O1270     Ni1276   1.905       .  S
O1270      C1280   1.272       .  A
O1271     Ni1276   1.919       .  S
O1271      C1281   1.268       .  A
O1272     Ni1277   1.975       .  S
O1272      C1281   1.288       .  A
O1273     Ni1277   1.978       .  S
O1273      C1280   1.299       .  A
O1274     Ni1277   1.861       .  S
O1274      C1279   1.259       .  A
O1275     Ni1961   1.834       .  S
O1275      C1962   1.260       .  A
Ni1276    Ni1277   2.348       .  S
C1278      C1300   1.409       .  S
C1279      C1307   1.463       .  S
C1280      C1286   1.541       .  S
C1281      N1289   1.458       .  S
N1282      C1970   1.375       .  A
C1283      C1968   1.401       .  A
C1283      C1310   1.634       .  S
C1284      H1287   1.080       .  S
C1285      C1286   1.370       .  A
C1285      H1288   1.080       .  S
N1289      C1293   1.362       .  A
N1289      C1290   1.393       .  A
C1290      C1291   1.403       .  A
C1290      C1367   1.570       .  S
C1291      C1292   1.357       .  A
C1291      H1294   1.078       .  S
C1292      C1293   1.365       .  A
C1292      H1295   1.083       .  S
N1296      C1984   1.376       .  A
N1296      C1297   1.421       .  A
C1297      C1982   1.388       .  A
C1297      C1310   1.614       .  S
C1298      C1299   1.332       .  A
C1298      H1301   1.064       .  S
C1299      C1300   1.360       .  A
C1299      H1302   1.085       .  S
N1303      C1307   1.347       .  A
C1304      C1305   1.386       .  A
C1304      C1367   1.562       .  S
C1305      H1308   1.077       .  S
C1306      C1307   1.374       .  A
C1306      H1309   1.082       .  S
C1310      C1911   1.609       .  S
O1311     Ni2003   1.921   1_554  S
O1311      C1321   1.283       .  A
O1312     Ni1319   1.969       .  S
O1312      C1322   1.282       .  A
O1313     Ni1319   1.894   1_554  S
O1313      C1323   1.276       .  A
O1314     Ni2003   1.907       .  S
O1314      C1324   1.270       .  A
O1315     Ni2004   1.881       .  S
O1315      C1324   1.282   1_554  A
O1316     Ni1320   1.869       .  S
O1316      C1323   1.260       .  A
O1317     Ni1320   1.999       .  S
O1317      C1322   1.296   1_554  A
O1318     Ni2004   1.921       .  S
O1318      C1321   1.277       .  A
Ni1319    Ni1320   2.339   1_556  S
C1321      C1343   1.507       .  S
C1322      N1346   1.495       .  S
C1323      C1357   1.443       .  S
C1324      N1360   1.451       .  S
O1325     Ni1333   1.950   1_554  S
O1325      C1335   1.298       .  A
O1326     Ni1561   1.909       .  S
O1326      C1336   1.270   1_545  A
O1327     Ni2017   1.930   1_554  S
O1327      C1337   1.283       .  A
O1328      C1338   1.263   1_545  A
O1329     Ni1334   1.864       .  S
O1329      C1338   1.268   1_554  A
O1330     Ni2018   1.918   1_545  S
O1331     Ni2018   1.949       .  S
O1331      C1336   1.290   1_554  A
O1332     Ni1334   1.986   1_545  S
C1335      N1353   1.506       .  S
C1336      C1364   1.509       .  S
C1337      N1339   1.439       .  S
C1338      C1350   1.430       .  S
N1339      C1343   1.365       .  A
N1339      C1340   1.395       .  A
C1340      C1341   1.400       .  A
C1340      C1367   1.592       .  S
C1341      C1342   1.377       .  A
C1341      H1344   1.066       .  S
C1342      C1343   1.363       .  A
C1342      H1345   1.083       .  S
N1346      C1350   1.357       .  A
N1346      C1347   1.414       .  A
C1347      C1348   1.399       .  A
C1347      C1368   1.605       .  S
C1348      C1349   1.337       .  A
C1348      H1351   1.056       .  S
C1349      C1350   1.348       .  A
N1353      C1357   1.334       .  A
N1353      C1354   1.391       .  A
C1354      C1355   1.392       .  A
C1354      C1367   1.626       .  S
C1355      C1356   1.368       .  A
C1355      H1358   1.082       .  S
C1356      C1357   1.367       .  A
C1356      H1359   1.071       .  S
N1360      C1364   1.354       .  A
N1360      C1361   1.386       .  A
C1361      C1362   1.397       .  A
C1361      C1368   1.623       .  S
C1362      C1363   1.385       .  A
C1362      H1365   1.075       .  S
C1363      C1364   1.369       .  A
O1369     Ni1377   1.959       .  S
O1369      C1379   1.300       .  A
O1370     Ni1377   1.912       .  S
O1370      C1380   1.271       .  A
O1371     Ni1377   1.934       .  S
O1371      C1381   1.284       .  A
O1372     Ni1377   1.849       .  S
O1372      C1382   1.263       .  A
O1373     Ni1378   1.871       .  S
O1373      C1382   1.270       .  A
O1374     Ni1378   1.920       .  S
O1374      C1381   1.275       .  A
O1375     Ni1378   1.945       .  S
O1375      C1380   1.287       .  A
O1376     Ni1378   1.989       .  S
O1376      C1379   1.287       .  A
Ni1377    Ni1378   2.351       .  S
C1379      N1860   1.512   1_545  S
C1380      C1415   1.507       .  S
C1382      C1878   1.436   1_545  S
O1383     Ni1391   1.871       .  S
O1383      C1393   1.261       .  A
O1384     Ni1391   1.885       .  S
O1384      C1394   1.284       .  A
O1385     Ni1391   1.924       .  S
O1385      C1395   1.276       .  A
O1386     Ni1391   2.004       .  S
O1386      C1396   1.298       .  A
O1387     Ni1392   1.969       .  S
O1387      C1396   1.283       .  A
O1388     Ni1392   1.923       .  S
O1388      C1395   1.283       .  A
O1389     Ni1392   1.906       .  S
O1389      C1394   1.270       .  A
O1390     Ni1392   1.890       .  S
O1390      C1393   1.273       .  A
Ni1391    Ni1392   2.337       .  S
C1393      C1864   1.441       .  S
C1394      N1411   1.454       .  S
C1395      C1401   1.510       .  S
C1396      N1874   1.496   1_545  S
N1397      C1401   1.366       .  A
N1397      C1398   1.397       .  A
C1398      C1399   1.399       .  A
C1398      C1425   1.589       .  S
C1399      C1400   1.379       .  A
C1399      H1402   1.068       .  S
C1400      C1401   1.366       .  A
C1400      H1403   1.083       .  S
N1404      C1607   1.512       .  S
C1405      C1406   1.392       .  A
C1405      C1425   1.633       .  S
C1406      C1407   1.368       .  A
C1406      H1409   1.081       .  S
C1407      C1408   1.364       .  A
C1407      H1410   1.071       .  S
C1408      C1621   1.441       .  S
N1411      C1415   1.356       .  A
N1411      C1412   1.388       .  A
C1412      C1413   1.396       .  A
C1412      C1596   1.626       .  S
C1413      C1414   1.383       .  A
C1413      H1416   1.071       .  S
C1414      C1415   1.369       .  A
C1414      H1417   1.076       .  S
N1418      C1624   1.496       .  S
N1418      C1422   1.359       .  A
N1418      C1419   1.418       .  A
C1419      C1420   1.398       .  A
C1419      C1596   1.606       .  S
C1420      C1421   1.338       .  A
C1420      H1423   1.057       .  S
C1421      C1422   1.349       .  A
C1421      H1424   1.084       .  S
C1422      C1610   1.436       .  S
C1425      C1476   1.577       .  S
O1426     Ni1890   2.005       .  S
O1426      C1436   1.308       .  A
O1427     Ni1434   1.951       .  S
O1427      C1437   1.281       .  A
O1428     Ni1890   1.881       .  S
O1428      C1438   1.261       .  A
O1429     Ni1434   1.854       .  S
O1429      C1439   1.256       .  A
O1430     Ni1435   1.944       .  S
O1430      C1439   1.290       .  A
O1431     Ni1435   1.931       .  S
O1431      C1666   1.284       .  A
O1432     Ni1435   1.917       .  S
O1432      C1437   1.275       .  A
O1433     Ni1435   1.962       .  S
O1433      C1664   1.273       .  A
Ni1434     O1654   2.005       .  S
Ni1434     O1656   1.881       .  S
Ni1434    Ni1435   2.349       .  S
C1436      O1889   1.273       .  A
C1436      N1454   1.518       .  S
C1437      N1475   1.450       .  S
C1438      O1887   1.284       .  A
C1438      N1461   1.421       .  S
C1439      C1472   1.475       .  S
O1440     Ni1448   1.885       .  S
O1440      C1450   1.272       .  A
O1441     Ni1448   1.932       .  S
O1441      C1451   1.289       .  A
O1442     Ni1448   1.904       .  S
O1442      C1452   1.271       .  A
O1443     Ni1448   1.923       .  S
O1443      C1453   1.276       .  A
O1444     Ni1449   1.951       .  S
O1444      C1453   1.289       .  A
O1445     Ni1449   1.976       .  S
O1445      C1452   1.298       .  A
O1446     Ni1449   1.862       .  S
O1446      C1451   1.262       .  A
O1447     Ni1449   1.843       .  S
O1447      C1450   1.261       .  A
Ni1448    Ni1449   2.371       .  S
C1450      C1458   1.410       .  S
C1451      C1479   1.479       .  S
C1452      C1465   1.534       .  S
C1453      N1468   1.450       .  S
N1454      C1458   1.358       .  A
N1454      C1455   1.410       .  A
C1455      C1456   1.388       .  A
C1456      C1457   1.343       .  A
C1457      C1458   1.348       .  A
C1457      H1460   1.070       .  S
N1461      C1465   1.361       .  A
N1461      C1462   1.391       .  A
C1462      C1463   1.394       .  A
C1462      C1538   1.641       .  S
C1463      C1464   1.382       .  A
C1463      H1466   1.067       .  S
C1464      C1465   1.352       .  A
C1464      H1467   1.073       .  S
N1468      C1472   1.340       .  A
N1468      C1469   1.375       .  A
C1469      C1470   1.386       .  A
C1470      C1471   1.378       .  A
C1470      H1473   1.075       .  S
C1471      C1472   1.376       .  A
C1471      H1702   1.082       .  S
H1474      C1927   1.082       .  S
N1475      C1479   1.357       .  A
N1475      C1476   1.396       .  A
C1476      C1477   1.403       .  A
C1477      C1478   1.361       .  A
C1477      H1480   1.076   1_655  S
C1478      C1479   1.356       .  A
C1478      H1481   1.083       .  S
O1482     Ni1490   1.991       .  S
O1482      C1492   1.283       .  A
O1483     Ni1490   1.966       .  S
O1483      C1493   1.290       .  A
O1484     Ni1490   1.919       .  S
O1484      C1494   1.280       .  A
O1485     Ni1490   1.914       .  S
O1485      C1495   1.279       .  A
O1486     Ni1491   1.909       .  S
O1486      C1495   1.271       .  A
O1487     Ni1491   1.875       .  S
O1487      C1494   1.264       .  A
O1488     Ni1491   1.932       .  S
O1488      C1493   1.281       .  A
O1489     Ni1491   1.988       .  S
O1489      C1492   1.301       .  A
Ni1490    Ni1491   2.356       .  S
C1492      N1524   1.529   1_655  S
C1493      N1531   1.461       .  S
C1494      C1521   1.474       .  S
C1495      N1510   1.428   1_655  S
O1496     Ni1504   1.877       .  S
O1496      C1506   1.266       .  A
O1497     Ni1504   1.918       .  S
O1497      C1507   1.281       .  A
O1498     Ni1504   1.905       .  S
O1498      C1508   1.272       .  A
O1499     Ni1504   1.919       .  S
O1499      C1509   1.268       .  A
O1500     Ni1505   1.975       .  S
O1500      C1509   1.288       .  A
O1501     Ni1505   1.978       .  S
O1501      C1508   1.299       .  A
O1502     Ni1505   1.861       .  S
O1502      C1507   1.259       .  A
Ni1504    Ni1505   2.348       .  S
C1506      C1528   1.409       .  S
C1507      C1535   1.463       .  S
C1508      C1514   1.541       .  S
C1509      N1517   1.458       .  S
N1510      C1739   1.393   1_455  A
C1511      N1966   1.393   1_655  A
C1511      C1538   1.634   1_565  S
C1512      C1969   1.379       .  A
C1512      H1515   1.080       .  S
C1513      C1740   1.379       .  A
C1513      C1514   1.370       .  A
C1513      H1516   1.080       .  S
N1517      C1521   1.362       .  A
N1517      C1518   1.393       .  A
C1518      C1519   1.403       .  A
C1518      C1595   1.570       .  S
C1519      C1520   1.357       .  A
C1519      H1522   1.078       .  S
C1520      C1521   1.365       .  A
C1520      H1523   1.083       .  S
N1524      C1525   1.421       .  A
C1525      C1538   1.614   1_455  S
C1526      C1527   1.332       .  A
C1526      H1529   1.064       .  S
C1527      C1528   1.360       .  A
C1527      H1530   1.085       .  S
N1531      C1535   1.347       .  A
N1531      C1760   1.380       .  A
C1532      N1987   1.380   1_545  A
C1532      C1533   1.386   1_545  A
C1532      C1595   1.562       .  S
C1533      C1990   1.372       .  A
C1533      H1536   1.077   1_565  S
C1534      C1761   1.372       .  A
C1534      C1535   1.374       .  A
C1534      H1537   1.082       .  S
O1539      C1549   1.283       .  A
O1540     Ni1547   1.969       .  S
O1540      C1550   1.282       .  A
O1541     Ni1547   1.894   1_554  S
O1541      C1551   1.276       .  A
O1542      C1552   1.270       .  A
O1543      C1552   1.282   1_554  A
O1544     Ni1548   1.869       .  S
O1544      C1551   1.260       .  A
O1545     Ni1548   1.999       .  S
O1545      C1550   1.296   1_554  A
O1546      C1549   1.277       .  A
Ni1547    Ni1548   2.339   1_556  S
C1549      C1571   1.507       .  S
C1550      N1574   1.495       .  S
C1551      C1585   1.443       .  S
C1552      N1588   1.451       .  S
O1553     Ni1561   1.950   1_554  S
O1553      C1563   1.298       .  A
O1554      C1564   1.270       .  A
O1555      C1565   1.283       .  A
O1556     Ni1789   1.850       .  S
O1556      C1566   1.263       .  A
O1557     Ni1562   1.864       .  S
O1557      C1566   1.268   1_554  A
O1558      C1793   1.273       .  A
O1559      C1564   1.290   1_554  A
O1560     Ni1562   1.986       .  S
O1560      C1791   1.287       .  A
Ni1561     O2012   1.850       .  S
Ni1561    Ni2018   2.355   1_546  S
Ni1562    Ni1789   2.355   1_554  S
C1563      O2016   1.287       .  A
C1563      N1581   1.506       .  S
C1564      C1592   1.509       .  S
C1565      O2014   1.273       .  A
C1565      N1567   1.439       .  S
C1566      C1578   1.430       .  S
N1567      C1571   1.365       .  A
N1567      C1568   1.395       .  A
C1568      C1569   1.400       .  A
C1568      C1595   1.592       .  S
C1569      C1570   1.377       .  A
C1569      H1572   1.066       .  S
C1570      C1571   1.363       .  A
C1570      H1573   1.083       .  S
N1574      C1578   1.357       .  A
N1574      C1575   1.414       .  A
C1575      C1576   1.399       .  A
C1575      C1596   1.605       .  S
C1576      C1577   1.337       .  A
C1576      H1579   1.056       .  S
C1577      C1578   1.348       .  A
C1577      H1808   1.083       .  S
H1580      C2033   1.083   1_545  S
N1581      C1585   1.334       .  A
N1581      C1582   1.391       .  A
C1582      C1583   1.392       .  A
C1582      C1595   1.626       .  S
C1583      C1584   1.368       .  A
C1583      H1586   1.082       .  S
C1584      C1585   1.367       .  A
C1584      H1587   1.071       .  S
N1588      C1592   1.354       .  A
N1588      C1589   1.386       .  A
C1589      C1590   1.397       .  A
C1589      C1596   1.623       .  S
C1590      C1591   1.385       .  A
C1590      H1593   1.075       .  S
C1591      C1592   1.369       .  A
C1591      H1822   1.076       .  S
H1594      C2047   1.076       .  S
O1597     Ni1605   1.959       .  S
O1597      C1607   1.300       .  A
O1598     Ni1605   1.912       .  S
O1598      C1608   1.271       .  A
O1599     Ni1605   1.934       .  S
O1599      C1609   1.284       .  A
O1600     Ni1605   1.849       .  S
O1600      C1610   1.263       .  A
O1601     Ni1606   1.871       .  S
O1601      C1610   1.270       .  A
O1602     Ni1606   1.920       .  S
O1602      C1609   1.275       .  A
O1603     Ni1606   1.945       .  S
O1603      C1608   1.287       .  A
O1604     Ni1606   1.989       .  S
O1604      C1607   1.287       .  A
Ni1605    Ni1606   2.351       .  S
C1608      C1643   1.507       .  S
O1611     Ni1619   1.871       .  S
O1611      C1621   1.261       .  A
O1612     Ni1619   1.885       .  S
O1612      C1622   1.284       .  A
O1613     Ni1619   1.924       .  S
O1613      C1623   1.276       .  A
O1614     Ni1619   2.004       .  S
O1614      C1624   1.298       .  A
O1615     Ni1620   1.969       .  S
O1615      C1624   1.283       .  A
O1616     Ni1620   1.923       .  S
O1616      C1623   1.283       .  A
O1617     Ni1620   1.906       .  S
O1617      C1622   1.270       .  A
O1618     Ni1620   1.890       .  S
O1618      C1621   1.273       .  A
Ni1619    Ni1620   2.337       .  S
C1622      N1639   1.454       .  S
C1623      C1629   1.510       .  S
N1625      C1629   1.366       .  A
N1625      C1626   1.397       .  A
C1626      C1627   1.399       .  A
C1626      C1653   1.589       .  S
C1627      C1628   1.379       .  A
C1627      H1630   1.068       .  S
C1628      C1629   1.366       .  A
C1628      H1631   1.083       .  S
N1632      C1835   1.512       .  S
C1633      C1634   1.392       .  A
C1633      C1653   1.633       .  S
C1634      C1635   1.368       .  A
C1634      H1637   1.081       .  S
C1635      C1636   1.364       .  A
C1635      H1638   1.071       .  S
C1636      C1849   1.441       .  S
N1639      C1643   1.356       .  A
N1639      C1640   1.388       .  A
C1640      C1641   1.396       .  A
C1640      C1824   1.626       .  S
C1641      C1642   1.383       .  A
C1641      H1644   1.071       .  S
C1642      C1643   1.369       .  A
C1642      H1645   1.076       .  S
N1646      C1852   1.496       .  S
N1646      C1650   1.359       .  A
N1646      C1647   1.418       .  A
C1647      C1648   1.398       .  A
C1647      C1824   1.606       .  S
C1648      C1649   1.338       .  A
C1648      H1651   1.057       .  S
C1649      C1650   1.349       .  A
C1649      H1652   1.084       .  S
C1650      C1838   1.436       .  S
C1653      C1704   1.577       .  S
O1654      C1664   1.308       .  A
O1655     Ni1662   1.951       .  S
O1655      C1665   1.281       .  A
O1656      C1666   1.261       .  A
O1657     Ni1662   1.854       .  S
O1657      C1667   1.256       .  A
O1658     Ni1663   1.944       .  S
O1658      C1667   1.290       .  A
O1659     Ni1663   1.931       .  S
O1659      C1894   1.284       .  A
O1660     Ni1663   1.917       .  S
O1660      C1665   1.275       .  A
O1661     Ni1663   1.962       .  S
O1661      C1892   1.273       .  A
Ni1662     O1882   2.005       .  S
Ni1662     O1884   1.881       .  S
Ni1662    Ni1663   2.349       .  S
C1664      N1682   1.518       .  S
C1665      N1703   1.450       .  S
C1666      N1689   1.421       .  S
C1667      C1700   1.475       .  S
O1668     Ni1676   1.885       .  S
O1668      C1678   1.272       .  A
O1669     Ni1676   1.932       .  S
O1669      C1679   1.289       .  A
O1670     Ni1676   1.904       .  S
O1670      C1680   1.271       .  A
O1671     Ni1676   1.923       .  S
O1671      C1681   1.276       .  A
O1672     Ni1677   1.951       .  S
O1672      C1681   1.289       .  A
O1673     Ni1677   1.976       .  S
O1673      C1680   1.298       .  A
O1674     Ni1677   1.862       .  S
O1674      C1679   1.262       .  A
O1675     Ni1677   1.843       .  S
O1675      C1678   1.261       .  A
Ni1676    Ni1677   2.371       .  S
C1678      C1686   1.410       .  S
C1679      C1707   1.479       .  S
C1680      C1693   1.534       .  S
C1681      N1696   1.450       .  S
N1682      C1686   1.358       .  A
N1682      C1683   1.410       .  A
C1683      C1684   1.388       .  A
C1684      C1685   1.343       .  A
C1685      C1686   1.348       .  A
C1685      H1688   1.070       .  S
N1689      C1693   1.361       .  A
N1689      C1690   1.391       .  A
C1690      C1691   1.394       .  A
C1690      C1766   1.641       .  S
C1691      C1692   1.382       .  A
C1691      H1694   1.067       .  S
C1692      C1693   1.352       .  A
C1692      H1695   1.073       .  S
N1696      C1700   1.340       .  A
N1696      C1697   1.375       .  A
C1697      C1698   1.386       .  A
C1698      C1699   1.378       .  A
C1698      H1701   1.075       .  S
C1699      C1700   1.376       .  A
C1699      H1930   1.082       .  S
N1703      C1707   1.357       .  A
N1703      C1704   1.396       .  A
C1704      C1705   1.403       .  A
C1705      C1706   1.361       .  A
C1705      H1708   1.076   1_655  S
C1706      C1707   1.356       .  A
C1706      H1709   1.083       .  S
O1710     Ni1718   1.991       .  S
O1710      C1720   1.283       .  A
O1711     Ni1718   1.966       .  S
O1711      C1721   1.290       .  A
O1712     Ni1718   1.919       .  S
O1712      C1722   1.280       .  A
O1713     Ni1718   1.914       .  S
O1713      C1723   1.279       .  A
O1714     Ni1719   1.909       .  S
O1714      C1723   1.271       .  A
O1715     Ni1719   1.875       .  S
O1715      C1722   1.264       .  A
O1716     Ni1719   1.932       .  S
O1716      C1721   1.281       .  A
O1717     Ni1719   1.988       .  S
O1717      C1720   1.301       .  A
Ni1718    Ni1719   2.356       .  S
C1720      N1752   1.529   1_655  S
C1721      N1759   1.461       .  S
C1722      C1749   1.474       .  S
C1723      N1738   1.428   1_655  S
O1724     Ni1732   1.877       .  S
O1724      C1734   1.266       .  A
O1725     Ni1732   1.918       .  S
O1725      C1735   1.281       .  A
O1726     Ni1732   1.905       .  S
O1726      C1736   1.272       .  A
O1727     Ni1732   1.919       .  S
O1727      C1737   1.268       .  A
O1728     Ni1733   1.975       .  S
O1728      C1737   1.288       .  A
O1729     Ni1733   1.978       .  S
O1729      C1736   1.299       .  A
O1730     Ni1733   1.861       .  S
O1730      C1735   1.259       .  A
Ni1732    Ni1733   2.348       .  S
C1734      C1756   1.409       .  S
C1735      C1763   1.463       .  S
C1736      C1742   1.541       .  S
C1737      N1745   1.458       .  S
N1738      C1967   1.393   1_455  A
C1739      C1766   1.634       .  S
C1740      H1743   1.080       .  S
C1741      C1968   1.379       .  A
C1741      C1742   1.370       .  A
C1741      H1744   1.080       .  S
N1745      C1749   1.362       .  A
N1745      C1746   1.393       .  A
C1746      C1747   1.403       .  A
C1746      C1823   1.570       .  S
C1747      C1748   1.357       .  A
C1747      H1750   1.078       .  S
C1748      C1749   1.365       .  A
C1748      H1751   1.083       .  S
N1752      C1753   1.421       .  A
C1753      C1766   1.614   1_455  S
C1754      C1755   1.332       .  A
C1754      H1757   1.064       .  S
C1755      C1756   1.360       .  A
C1755      H1758   1.085       .  S
N1759      C1763   1.347       .  A
N1759      C1988   1.380       .  A
C1760      C1761   1.386       .  A
C1760      C1823   1.562       .  S
C1761      H1764   1.077       .  S
C1762      C1989   1.372       .  A
C1762      C1763   1.374       .  A
C1762      H1765   1.082       .  S
O1767      C1777   1.283       .  A
O1768     Ni1775   1.969       .  S
O1768      C1778   1.282       .  A
O1769     Ni1775   1.894   1_554  S
O1769      C1779   1.276       .  A
O1770      C1780   1.270       .  A
O1771      C1780   1.282   1_554  A
O1772     Ni1776   1.869       .  S
O1772      C1779   1.260       .  A
O1773     Ni1776   1.999       .  S
O1773      C1778   1.296   1_554  A
O1774      C1777   1.277       .  A
Ni1775    Ni1776   2.339   1_556  S
C1777      C1799   1.507       .  S
C1778      N1802   1.495       .  S
C1779      C1813   1.443       .  S
C1780      N1816   1.451       .  S
O1781     Ni1789   1.950   1_554  S
O1781      C1791   1.298       .  A
O1782      C1792   1.270       .  A
O1783      C1793   1.283       .  A
O1784     Ni2017   1.850       .  S
O1784      C1794   1.263       .  A
O1785     Ni1790   1.864       .  S
O1785      C1794   1.268   1_554  A
O1786      C2021   1.273       .  A
O1787      C1792   1.290   1_554  A
O1788     Ni1790   1.986       .  S
O1788      C2019   1.287       .  A
Ni1790    Ni2017   2.355   1_554  S
C1791      N1809   1.506       .  S
C1792      C1820   1.509       .  S
C1793      N1795   1.439       .  S
C1794      C1806   1.430       .  S
N1795      C1799   1.365       .  A
N1795      C1796   1.395       .  A
C1796      C1797   1.400       .  A
C1796      C1823   1.592       .  S
C1797      C1798   1.377       .  A
C1797      H1800   1.066       .  S
C1798      C1799   1.363       .  A
C1798      H1801   1.083       .  S
N1802      C1806   1.357       .  A
N1802      C1803   1.414       .  A
C1803      C1804   1.399       .  A
C1803      C1824   1.605       .  S
C1804      C1805   1.337       .  A
C1804      H1807   1.056       .  S
C1805      C1806   1.348       .  A
C1805      H2036   1.083       .  S
N1809      C1813   1.334       .  A
N1809      C1810   1.391       .  A
C1810      C1811   1.392       .  A
C1810      C1823   1.626       .  S
C1811      C1812   1.368       .  A
C1811      H1814   1.082       .  S
C1812      C1813   1.367       .  A
C1812      H1815   1.071       .  S
N1816      C1820   1.354       .  A
N1816      C1817   1.386       .  A
C1817      C1818   1.397       .  A
C1817      C1824   1.623       .  S
C1818      C1819   1.385       .  A
C1818      H1821   1.075       .  S
C1819      C1820   1.369       .  A
C1819      H2050   1.076       .  S
O1825     Ni1833   1.959       .  S
O1825      C1835   1.300       .  A
O1826     Ni1833   1.912       .  S
O1826      C1836   1.271       .  A
O1827     Ni1833   1.934       .  S
O1827      C1837   1.284       .  A
O1828     Ni1833   1.849       .  S
O1828      C1838   1.263       .  A
O1829     Ni1834   1.871       .  S
O1829      C1838   1.270       .  A
O1830     Ni1834   1.920       .  S
O1830      C1837   1.275       .  A
O1831     Ni1834   1.945       .  S
O1831      C1836   1.287       .  A
O1832     Ni1834   1.989       .  S
O1832      C1835   1.287       .  A
Ni1833    Ni1834   2.351       .  S
C1836      C1871   1.507       .  S
O1839     Ni1847   1.871       .  S
O1839      C1849   1.261       .  A
O1840     Ni1847   1.885       .  S
O1840      C1850   1.284       .  A
O1841     Ni1847   1.924       .  S
O1841      C1851   1.276       .  A
O1842     Ni1847   2.004       .  S
O1842      C1852   1.298       .  A
O1843     Ni1848   1.969       .  S
O1843      C1852   1.283       .  A
O1844     Ni1848   1.923       .  S
O1844      C1851   1.283       .  A
O1845     Ni1848   1.906       .  S
O1845      C1850   1.270       .  A
O1846     Ni1848   1.890       .  S
O1846      C1849   1.273       .  A
Ni1847    Ni1848   2.337       .  S
C1850      N1867   1.454       .  S
C1851      C1857   1.510       .  S
N1853      C1857   1.366       .  A
N1853      C1854   1.397       .  A
C1854      C1855   1.399       .  A
C1854      C1881   1.589       .  S
C1855      C1856   1.379       .  A
C1855      H1858   1.068       .  S
C1856      C1857   1.366       .  A
C1856      H1859   1.083       .  S
C1861      C1862   1.392       .  A
C1861      C1881   1.633       .  S
C1862      C1863   1.368   1_565  A
C1862      H1865   1.081       .  S
C1863      C1864   1.364       .  A
C1863      H1866   1.070       .  S
N1867      C1871   1.356       .  A
N1867      C1868   1.388       .  A
C1868      C1869   1.396       .  A
C1868      C2052   1.626       .  S
C1869      C1870   1.383       .  A
C1869      H1872   1.071       .  S
C1870      C1871   1.369       .  A
C1870      H1873   1.076       .  S
N1874      C1878   1.359       .  A
N1874      C1875   1.418       .  A
C1875      C1876   1.398       .  A
C1875      C2052   1.606       .  S
C1876      C1877   1.338       .  A
C1876      H1879   1.057       .  S
C1877      C1878   1.349       .  A
C1877      H1880   1.084       .  S
C1881      C1932   1.577       .  S
O1882      C1892   1.308       .  A
O1883     Ni1890   1.951   1_565  S
O1883      C1893   1.281       .  A
O1884      C1894   1.261       .  A
O1885     Ni1890   1.854   1_565  S
O1885      C1895   1.256       .  A
O1886     Ni1891   1.944       .  S
O1886      C1895   1.290       .  A
O1887     Ni1891   1.931   1_545  S
O1888     Ni1891   1.917       .  S
O1888      C1893   1.275       .  A
O1889     Ni1891   1.962   1_545  S
Ni1890    Ni1891   2.349   1_545  S
C1892      N1910   1.518       .  S
C1893      N1931   1.450       .  S
C1894      N1917   1.421       .  S
C1895      C1928   1.475       .  S
O1896     Ni1904   1.885       .  S
O1896      C1906   1.272       .  A
O1897     Ni1904   1.932       .  S
O1897      C1907   1.289       .  A
O1898     Ni1904   1.904       .  S
O1898      C1908   1.271       .  A
O1899     Ni1904   1.923       .  S
O1899      C1909   1.276       .  A
O1900     Ni1905   1.951       .  S
O1900      C1909   1.289       .  A
O1901     Ni1905   1.976       .  S
O1901      C1908   1.298       .  A
O1902     Ni1905   1.862       .  S
O1902      C1907   1.262       .  A
O1903     Ni1905   1.843       .  S
O1903      C1906   1.261       .  A
Ni1904    Ni1905   2.371       .  S
C1906      C1914   1.410       .  S
C1907      C1935   1.479       .  S
C1908      C1921   1.534       .  S
C1909      N1924   1.450       .  S
N1910      C1914   1.358       .  A
N1910      C1911   1.410       .  A
C1911      C1912   1.388       .  A
C1912      C1913   1.343       .  A
C1913      C1914   1.348       .  A
C1913      H1916   1.070       .  S
N1917      C1921   1.361       .  A
N1917      C1918   1.391       .  A
C1918      C1919   1.394       .  A
C1918      C1994   1.641       .  S
C1919      C1920   1.382       .  A
C1919      H1922   1.067       .  S
C1920      C1921   1.352       .  A
C1920      H1923   1.073       .  S
N1924      C1928   1.340       .  A
N1924      C1925   1.375       .  A
C1925      C1926   1.386       .  A
C1926      C1927   1.378       .  A
C1926      H1929   1.075       .  S
C1927      C1928   1.376       .  A
N1931      C1935   1.357       .  A
N1931      C1932   1.396       .  A
C1932      C1933   1.403       .  A
C1933      C1934   1.361       .  A
C1933      H1936   1.077   1_655  S
C1934      C1935   1.356       .  A
C1934      H1937   1.083       .  S
O1938     Ni1946   1.991       .  S
O1938      C1948   1.283       .  A
O1939     Ni1946   1.966       .  S
O1939      C1949   1.290       .  A
O1940     Ni1946   1.919       .  S
O1940      C1950   1.280       .  A
O1941     Ni1946   1.914       .  S
O1941      C1951   1.279       .  A
O1942     Ni1947   1.909       .  S
O1942      C1951   1.271       .  A
O1943     Ni1947   1.876       .  S
O1943      C1950   1.264       .  A
O1944     Ni1947   1.932       .  S
O1944      C1949   1.281       .  A
O1945     Ni1947   1.988       .  S
O1945      C1948   1.301       .  A
Ni1946    Ni1947   2.356       .  S
C1948      N1980   1.529   1_655  S
C1949      N1987   1.461       .  S
C1950      C1977   1.474       .  S
C1951      N1966   1.428   1_655  S
O1952     Ni1960   1.877       .  S
O1952      C1962   1.266       .  A
O1953     Ni1960   1.918       .  S
O1953      C1963   1.281       .  A
O1954     Ni1960   1.905       .  S
O1954      C1964   1.272       .  A
O1955     Ni1960   1.919       .  S
O1955      C1965   1.268       .  A
O1956     Ni1961   1.975       .  S
O1956      C1965   1.288       .  A
O1957     Ni1961   1.978       .  S
O1957      C1964   1.299       .  A
O1958     Ni1961   1.861       .  S
O1958      C1963   1.259       .  A
Ni1960    Ni1961   2.348       .  S
C1962      C1984   1.409       .  S
C1963      C1991   1.463       .  S
C1964      C1970   1.541       .  S
C1965      N1973   1.458       .  S
C1967      C1994   1.634       .  S
C1968      H1971   1.080       .  S
C1969      C1970   1.370       .  A
C1969      H1972   1.080       .  S
N1973      C1977   1.362       .  A
N1973      C1974   1.393       .  A
C1974      C1975   1.403       .  A
C1974      C2051   1.570       .  S
C1975      C1976   1.357       .  A
C1975      H1978   1.078       .  S
C1976      C1977   1.365       .  A
C1976      H1979   1.083       .  S
N1980      C1981   1.421       .  A
C1981      C1994   1.614   1_455  S
C1982      C1983   1.332       .  A
C1982      H1985   1.064       .  S
C1983      C1984   1.360       .  A
C1983      H1986   1.085       .  S
N1987      C1991   1.347       .  A
C1988      C1989   1.386       .  A
C1988      C2051   1.562       .  S
C1989      H1992   1.077       .  S
C1990      C1991   1.374       .  A
C1990      H1993   1.082       .  S
O1995      C2005   1.283       .  A
O1996     Ni2003   1.969       .  S
O1996      C2006   1.282       .  A
O1997     Ni2003   1.894   1_554  S
O1997      C2007   1.276       .  A
O1998      C2008   1.270       .  A
O1999      C2008   1.282   1_554  A
O2000     Ni2004   1.869       .  S
O2000      C2007   1.260       .  A
O2001     Ni2004   1.999       .  S
O2001      C2006   1.296   1_554  A
O2002      C2005   1.277       .  A
Ni2003    Ni2004   2.339   1_556  S
C2005      C2027   1.507       .  S
C2006      N2030   1.495       .  S
C2007      C2041   1.443       .  S
C2008      N2044   1.451       .  S
O2009     Ni2017   1.950   1_554  S
O2009      C2019   1.298       .  A
O2010      C2020   1.270   1_545  A
O2011      C2021   1.283       .  A
O2012      C2022   1.263   1_545  A
O2013     Ni2018   1.864       .  S
O2013      C2022   1.268   1_554  A
O2015      C2020   1.290   1_554  A
O2016     Ni2018   1.986   1_545  S
C2019      N2037   1.506       .  S
C2020      C2048   1.509       .  S
C2021      N2023   1.439       .  S
C2022      C2034   1.430       .  S
N2023      C2027   1.365       .  A
N2023      C2024   1.395       .  A
C2024      C2025   1.400       .  A
C2024      C2051   1.592       .  S
C2025      C2026   1.377       .  A
C2025      H2028   1.066       .  S
C2026      C2027   1.363       .  A
C2026      H2029   1.083       .  S
N2030      C2034   1.357       .  A
N2030      C2031   1.414       .  A
C2031      C2032   1.399       .  A
C2031      C2052   1.605       .  S
C2032      C2033   1.337       .  A
C2032      H2035   1.056       .  S
C2033      C2034   1.348       .  A
N2037      C2041   1.334       .  A
N2037      C2038   1.391       .  A
C2038      C2039   1.392       .  A
C2038      C2051   1.626       .  S
C2039      C2040   1.368       .  A
C2039      H2042   1.082       .  S
C2040      C2041   1.367       .  A
C2040      H2043   1.071       .  S
N2044      C2048   1.354       .  A
N2044      C2045   1.386       .  A
C2045      C2046   1.397       .  A
C2045      C2052   1.623       .  S
C2046      C2047   1.385       .  A
C2046      H2049   1.075       .  S
C2047      C2048   1.369       .  A
