geometry optimzed in LAMMPS
_audit_creation_date              2020-12-01 
_audit_creation_method            'lammps2cif' 
_symmetry_space_group_name_H-M    'P1' 
_symmetry_Int_Tables_number       1 
_symmetry_cell_setting            triclinic 
loop_ 
_symmetry_equiv_pos_as_xyz 
  x,y,z 
_cell_length_a                    45.55905415 
_cell_length_b                    45.5513999748518 
_cell_length_c                    45.560054037631865 
_cell_angle_alpha                 89.88030256228988 
_cell_angle_beta                  89.4771997482769 
_cell_angle_gamma                 90.2277966118798 
loop_ 
_atom_site_label 
_atom_site_type_symbol 
_atom_site_fract_x 
_atom_site_fract_y 
_atom_site_fract_z 
_atom_site_charge 
C1          C  0.20063663  0.81012033  0.47658291     0.03100
C2          C  0.17819208  0.83106502  0.47798316    -0.13000
C3          C  0.16495195  0.83824009  0.50494547     0.00600
C4          C  0.17396388  0.82371813  0.53039608    -0.11600
C5          C  0.19710549  0.80361969  0.52936119     0.03100
C6          C  0.21024993  0.79652572  0.50237831    -0.11000
H7          H  0.17105560  0.84177639  0.45802533     0.08700
H8          H  0.16312444  0.82805999  0.55117382     0.06200
H9          H  0.22813280  0.78092579  0.50150951     0.06100
C10         C  0.84061422  0.14735451  0.52282450     0.03100
C11         C  0.86311939  0.12648609  0.52145871    -0.13000
C12         C  0.87130605  0.11367690  0.49465903     0.00600
C13         C  0.85789073  0.12328746  0.46880062    -0.11600
C14         C  0.83628512  0.14510912  0.46961499     0.03100
C15         C  0.82747471  0.15700783  0.49672565    -0.11000
H16         H  0.87438259  0.12041573  0.54138464     0.08700
H17         H  0.86454001  0.11405870  0.44786793     0.06200
H18         H  0.81077654  0.17386474  0.49746315     0.06100
C19         C  0.85490380  0.79232917  0.47959678     0.03100
C20         C  0.84511135  0.78001644  0.50623043    -0.13000
C21         C  0.85523139  0.79135901  0.53296203     0.00600
C22         C  0.87539390  0.81469180  0.53286569    -0.11600
C23         C  0.88450018  0.82778707  0.50642062     0.03100
C24         C  0.87429023  0.81627633  0.47983256    -0.11000
H25         H  0.82954809  0.76196832  0.50615480     0.08700
H26         H  0.88412282  0.82240188  0.55349542     0.06200
H27         H  0.88137994  0.82600230  0.45920280     0.06100
C28         C  0.50229020  0.81138234  0.18219753     0.03100
C29         C  0.50358392  0.83365326  0.16096692    -0.13000
C30         C  0.53065758  0.84414971  0.15017818     0.00600
C31         C  0.55662851  0.83198147  0.16123375    -0.11600
C32         C  0.55562758  0.81109412  0.18390968     0.03100
C33         C  0.52838331  0.80059327  0.19422569    -0.11000
H34         H  0.48327050  0.84255614  0.15259996     0.08700
H35         H  0.57772770  0.83898644  0.15249789     0.06200
H36         H  0.52751869  0.78391539  0.21120798     0.06100
C37         C  0.84233055  0.50593475  0.16838221     0.03100
C38         C  0.86553227  0.50491842  0.14785662    -0.13000
C39         C  0.87631799  0.47789234  0.13747831     0.00600
C40         C  0.86280230  0.45183318  0.14737196    -0.11600
C41         C  0.84055742  0.45248106  0.16881703     0.03100
C42         C  0.83008934  0.47956208  0.17903415    -0.11000
H43         H  0.87549974  0.52527895  0.14040241     0.08700
H44         H  0.87020849  0.43082155  0.13908400     0.06200
H45         H  0.81256518  0.48007379  0.19525705     0.06100
C46         C  0.85199552  0.44214827  0.82262263     0.03100
C47         C  0.87668510  0.44238572  0.84090693    -0.13000
C48         C  0.88984071  0.46901017  0.84945175     0.00600
C49         C  0.87746469  0.49549989  0.83991808    -0.11600
C50         C  0.85196144  0.49565496  0.82299105     0.03100
C51         C  0.83928953  0.46894478  0.81420787    -0.11000
H52         H  0.88530651  0.42175602  0.84889789     0.08700
H53         H  0.88723379  0.51623111  0.84631942     0.06200
H54         H  0.81974680  0.46901764  0.80083106     0.06100
C55         C  0.48760282  0.15012177  0.81884236     0.03100
C56         C  0.48556041  0.12614662  0.83804168    -0.13000
C57         C  0.51083614  0.11206747  0.84820013     0.00600
C58         C  0.53843459  0.12207164  0.83815991    -0.11600
C59         C  0.54068764  0.14467308  0.81718685     0.03100
C60         C  0.51512362  0.15899466  0.80790035    -0.11000
H61         H  0.46406587  0.11889444  0.84550863     0.08700
H62         H  0.55827140  0.11247500  0.84683845     0.06200
H63         H  0.51666276  0.17714398  0.79253899     0.06100
C64         C  0.19535185  0.45292521  0.82110446     0.03100
C65         C  0.20826478  0.47897801  0.81086566    -0.13000
C66         C  0.19725348  0.50608783  0.82021366     0.00600
C67         C  0.17267498  0.50713243  0.83899703    -0.11600
C68         C  0.15960438  0.48108592  0.84943324     0.03100
C69         C  0.17188776  0.45408891  0.84108217    -0.11000
H70         H  0.22680876  0.47816580  0.79582182     0.08700
H71         H  0.16389495  0.52824093  0.84548964     0.06200
H72         H  0.16281195  0.43375366  0.84966472     0.06100
C73         C  0.49630046  0.79645794  0.83459325     0.03100
C74         C  0.49789522  0.81810769  0.85633762    -0.13000
C75         C  0.52496185  0.82642189  0.86818484     0.00600
C76         C  0.55075751  0.81336369  0.85752788    -0.11600
C77         C  0.54965642  0.79176017  0.83559625     0.03100
C78         C  0.52230510  0.78356641  0.82393712    -0.11000
H79         H  0.47798971  0.82884221  0.86379522     0.08700
H80         H  0.57180359  0.82043704  0.86594138     0.06200
H81         H  0.52127337  0.76732393  0.80663137     0.06100
C82         C  0.04204478  0.31490472  0.31872878     0.03100
C83         C  0.01644301  0.30272393  0.30667547    -0.13000
C84         C  0.98871976  0.31353041  0.31492360     0.00600
C85         C  0.98679248  0.33641690  0.33537137    -0.11600
C86         C  0.01207718  0.34856347  0.34786862     0.03100
C87         C  0.03959805  0.33707912  0.33996086    -0.11000
H88         H  0.01807492  0.28500091  0.29092392     0.08700
H89         H  0.96536878  0.34436310  0.34204307     0.06200
H90         H  0.05926545  0.34540637  0.35030372     0.06100
O91         O  0.31057086  0.21132557  0.26830379    -0.88400
C92         C  0.27622446  0.21542435  0.18607312     0.87700
Mg93       Mg  0.28481242  0.19820564  0.30579380     1.58100
O94         O  0.28722590  0.28382181  0.21924306    -0.88100
O95         O  0.33651701  0.24929153  0.25354453    -0.75400
C96         C  0.16029144  0.27381296  0.29338081     0.92700
O97         O  0.26041059  0.17099541  0.23978567    -0.75200
O98         O  0.16997516  0.24986699  0.30386833    -0.82800
Mg99       Mg  0.30847579  0.18349019  0.23029992     1.58000
C100        C  0.22383548  0.34814993  0.21598264     0.92600
O101        O  0.35747173  0.19056560  0.21836245    -0.81000
H102        H  0.31392569  0.31319367  0.23781829    -0.06400
C103        C  0.20455457  0.25093492  0.22408865     0.87600
O104        O  0.27641594  0.24648989  0.31770066    -0.75500
O105        O  0.29516427  0.22026417  0.20475685    -0.88300
O106        O  0.23915361  0.33197320  0.19891353    -0.81100
C107        C  0.29916358  0.28370538  0.14097952     0.92700
C108        C  0.37342633  0.20730655  0.20234551     0.92600
Mg109      Mg  0.22562386  0.29785034  0.26649313     1.58000
O110        O  0.17671474  0.29060312  0.27783720    -0.81000
O111        O  0.27382712  0.30994540  0.25733241    -0.75300
O112        O  0.31574483  0.26803734  0.15700426    -0.81100
O113        O  0.32130815  0.14403279  0.25665501    -0.82800
O114        O  0.21748324  0.21252651  0.33975283    -0.81100
C115        C  0.29250215  0.30290327  0.23773982     0.87000
O116        O  0.23855661  0.26080176  0.29208227    -0.88300
O117        O  0.22351684  0.26983676  0.22872306    -0.88400
O118        O  0.19789809  0.23148058  0.24305847    -0.75400
Mg119      Mg  0.32374823  0.25781652  0.20556952     1.58000
O120        O  0.27574917  0.29495480  0.15121373    -0.82800
H121        H  0.34045704  0.23060738  0.29378728    -0.06500
O122        O  0.24684562  0.19683636  0.27800960    -0.88100
H123        H  0.22042565  0.16721311  0.25944186    -0.06400
H124        H  0.25821807  0.28693171  0.32117890    -0.06500
C125        C  0.24173374  0.17774492  0.25948071     0.87000
C126        C  0.32976219  0.23004609  0.27270973     0.87600
C127        C  0.25738081  0.26558392  0.31088706     0.87600
H128        H  0.19408013  0.25032525  0.20289967    -0.06500
O129        O  0.25709655  0.23447585  0.17939438    -0.75500
Mg130      Mg  0.21012218  0.22307883  0.29109607     1.58000
H131        H  0.27535903  0.19406728  0.17580199    -0.06500
C132        C  0.31237081  0.13359825  0.28100199     0.92600
O133        O  0.25768621  0.18615195  0.34663688    -0.82800
C134        C  0.23364937  0.19698366  0.35625074     0.92700
O135        O  0.36357403  0.23125040  0.19200770    -0.82800
Mg136      Mg  0.24926050  0.28278051  0.19158140     1.58200
O137        O  0.29652474  0.14889021  0.29853650    -0.81100
O138        O  0.21349259  0.33811907  0.24002242    -0.82800
C139        C  0.35046851  0.01910971  0.32120042     0.03100
C140        C  0.33817544  0.99254388  0.31171380    -0.13000
C141        C  0.34840731  0.96585125  0.32298866     0.00600
C142        C  0.37004772  0.96602433  0.34465332    -0.11600
C143        C  0.38281913  0.99245276  0.35410216     0.03100
C144        C  0.37349298  0.01891149  0.34143610    -0.11000
H145        H  0.32070519  0.99267237  0.29573485     0.08700
H146        H  0.37724470  0.94534414  0.35389093     0.06200
H147        H  0.38410309  0.03939754  0.34702758     0.06100
O148        O  0.30569534  0.76207618  0.20924507    -0.88400
C149        C  0.29893630  0.67828129  0.24085890     0.87700
Mg150      Mg  0.31808285  0.79843817  0.23610749     1.58100
O151        O  0.23095966  0.71285705  0.23049322    -0.88100
O152        O  0.26772495  0.74891788  0.18304547    -0.75400
C153        C  0.24030974  0.78240425  0.35919036     0.92700
O154        O  0.34365647  0.73127133  0.25941933    -0.75200
O155        O  0.26418751  0.79356329  0.34967518    -0.82800
Mg156      Mg  0.33299979  0.72374284  0.21085364     1.58000
C157        C  0.16587388  0.70805954  0.29468764     0.92600
O158        O  0.32734609  0.71362947  0.16128752    -0.81000
H159        H  0.20228116  0.73290138  0.20430608    -0.06400
C160        C  0.26284229  0.71442702  0.31336473     0.87600
O161        O  0.26960238  0.81036136  0.24363789    -0.75500
O162        O  0.29504271  0.69804818  0.22267765    -0.88300
O163        O  0.18162305  0.69131570  0.27851740    -0.81100
C164        C  0.22915629  0.63499222  0.21518032     0.92700
C165        C  0.31056485  0.69834380  0.14498620     0.92600
Mg166      Mg  0.21684613  0.75803856  0.29337257     1.58000
O167        O  0.22364597  0.76734329  0.34262965    -0.81000
O168        O  0.20523371  0.75078856  0.24493764    -0.75300
O169        O  0.24590133  0.65140439  0.19960309    -0.81100
O170        O  0.37410598  0.75034315  0.20024572    -0.82800
O171        O  0.30164425  0.83085472  0.30325028    -0.81100
C172        C  0.21225676  0.73183836  0.22572034     0.87000
O173        O  0.25425058  0.78377824  0.28096969    -0.88300
O174        O  0.24428781  0.71973936  0.29441886    -0.88400
O175        O  0.28211300  0.73322983  0.32074011    -0.75400
Mg176      Mg  0.25801055  0.70056170  0.19394706     1.58000
O177        O  0.21825914  0.64415836  0.23935504    -0.82800
H178        H  0.28714280  0.78898696  0.18016310    -0.06500
O179        O  0.31800405  0.76947586  0.27328779    -0.88100
H180        H  0.34629883  0.74948132  0.29991167    -0.06400
H181        H  0.22872610  0.81343407  0.26140746    -0.06500
C182        C  0.33657716  0.75045064  0.27837403     0.87000
C183        C  0.28726667  0.76747386  0.19022906     0.87600
C184        C  0.25001345  0.80308843  0.26235632     0.87600
H185        H  0.26322307  0.69286591  0.32331387    -0.06500
O186        O  0.27915778  0.67091592  0.25932879    -0.75500
Mg187      Mg  0.29124089  0.78178241  0.30972549     1.58000
H188        H  0.32002736  0.66752276  0.24158836    -0.06500
C189        C  0.38393130  0.77397805  0.21153014     0.92600
O190        O  0.32943166  0.83840347  0.26373520    -0.82800
C191        C  0.31752224  0.84770811  0.28735488     0.92700
O192        O  0.28593885  0.68877948  0.15448614    -0.82800
Mg193      Mg  0.23092557  0.68354715  0.26755454     1.58200
O194        O  0.36748621  0.79087325  0.22670201    -0.81100
O195        O  0.17629129  0.73169772  0.30515447    -0.82800
O196        O  0.81049671  0.25848366  0.22746211    -0.88400
C197        C  0.77747662  0.25321349  0.31023811     0.87700
Mg198      Mg  0.78515023  0.27155001  0.19070295     1.58100
O199        O  0.78876029  0.18529453  0.27582286    -0.88100
O200        O  0.83742541  0.22113014  0.24092201    -0.75400
C201        C  0.66067597  0.19431844  0.20287327     0.92700
O202        O  0.75987544  0.29719831  0.25722497    -0.75200
O203        O  0.67057701  0.21825500  0.19200984    -0.82800
Mg204      Mg  0.80833648  0.28637662  0.26528642     1.58000
C205        C  0.72543671  0.12041227  0.27968083     0.92600
O206        O  0.85713776  0.27985900  0.27494707    -0.81000
H207        H  0.81521214  0.15668926  0.25558336    -0.06400
C208        C  0.70504717  0.21708117  0.27183009     0.87600
O209        O  0.77740105  0.22333667  0.17801758    -0.75500
O210        O  0.79642234  0.24892025  0.29113417    -0.88300
O211        O  0.74086543  0.13688046  0.29613547    -0.81100
C212        C  0.80090544  0.18347923  0.35390176     0.92700
C213        C  0.87448228  0.26369023  0.28962894     0.92600
Mg214      Mg  0.72626989  0.17090471  0.22910954     1.58000
O215        O  0.67693582  0.17783432  0.21851303    -0.81000
O216        O  0.77477257  0.15978097  0.23753106    -0.75300
O217        O  0.81807282  0.19955499  0.33832899    -0.81100
O218        O  0.82001882  0.32737847  0.23896056    -0.82800
O219        O  0.71824566  0.25787827  0.15530783    -0.81100
C220        C  0.79375909  0.16671302  0.25664408     0.87000
O221        O  0.73891077  0.20821684  0.20307192    -0.88300
O222        O  0.72458666  0.19891208  0.26694176    -0.88400
O223        O  0.69780013  0.23615233  0.25283823    -0.75400
Mg224      Mg  0.82543632  0.21173062  0.28909545     1.58000
O225        O  0.77699852  0.17338521  0.34366746    -0.82800
H226        H  0.84048014  0.24043383  0.20083588    -0.06500
O227        O  0.74669485  0.27211664  0.21840151    -0.88100
H228        H  0.71965929  0.30011663  0.23871126    -0.06400
H229        H  0.75938710  0.18278119  0.17369796    -0.06500
C230        C  0.74125210  0.29038769  0.23775147     0.87000
C231        C  0.83004486  0.24041778  0.22224341     0.87600
C232        C  0.75822241  0.20394593  0.18433090     0.87600
H233        H  0.69438568  0.21725445  0.29312620    -0.06500
O234        O  0.75819469  0.23397963  0.31666853    -0.75500
Mg235      Mg  0.71034155  0.24566928  0.20462851     1.58000
H236        H  0.77665195  0.27432213  0.32101165    -0.06500
C237        C  0.81031090  0.33712285  0.21475468     0.92600
O238        O  0.75932081  0.28422287  0.15106899    -0.82800
C239        C  0.73556643  0.27448478  0.14041874     0.92700
O240        O  0.86567227  0.23950682  0.30085503    -0.82800
Mg241      Mg  0.75051712  0.18590617  0.30379973     1.58200
O242        O  0.79528313  0.32071321  0.19786856    -0.81100
O243        O  0.71442568  0.13002536  0.25593531    -0.82800
C244        C  0.70388884  0.00371955  0.32615107     0.03100
C245        C  0.71903567  0.97791759  0.31876728    -0.13000
C246        C  0.71116366  0.95116165  0.33212124     0.00600
C247        C  0.68855069  0.95039124  0.35310267    -0.11600
C248        C  0.67255806  0.97569596  0.35969051     0.03100
C249        C  0.68048791  0.00237289  0.34635768    -0.11000
H250        H  0.73643963  0.97854750  0.30241131     0.08700
H251        H  0.68306487  0.92984674  0.36390199     0.06200
H252        H  0.66835907  0.02213173  0.35163025     0.06100
O253        O  0.74792362  0.77276538  0.23882952    -0.88400
C254        C  0.75195871  0.73552773  0.31954068     0.87700
Mg255      Mg  0.73302128  0.74897167  0.20160758     1.58100
O256        O  0.82016721  0.74452555  0.28434260    -0.88100
O257        O  0.78743975  0.79644029  0.25244407    -0.75400
C258        C  0.80435279  0.62177918  0.20501941     0.92700
O259        O  0.70576794  0.72365118  0.26738969    -0.75200
O260        O  0.78017393  0.63279763  0.19668897    -0.82800
Mg261      Mg  0.72038068  0.77100214  0.27727573     1.58000
C262        C  0.88182222  0.67912095  0.28368804     0.92600
O263        O  0.73078807  0.81906296  0.28931173    -0.81000
H264        H  0.85033910  0.77067320  0.26563552    -0.06400
C265        C  0.78453944  0.66285805  0.27807721     0.87600
O266        O  0.78050784  0.73935268  0.18737210    -0.75500
O267        O  0.75721281  0.75526657  0.30151806    -0.88300
O268        O  0.86607915  0.69403934  0.30147123    -0.81100
C269        C  0.82335573  0.75406978  0.36284662     0.92700
C270        C  0.74881751  0.83369912  0.30487886     0.92600
Mg271      Mg  0.83107517  0.68421076  0.23475593     1.58000
O272        O  0.82208129  0.63594226  0.22136929    -0.81000
O273        O  0.84506580  0.73152721  0.24515023    -0.75300
O274        O  0.80814478  0.77217996  0.34800068    -0.81100
O275        O  0.68016424  0.78641555  0.25214331    -0.82800
O276        O  0.74261861  0.68270191  0.16495491    -0.81100
C277        C  0.83914990  0.74970034  0.26544336     0.87000
O278        O  0.79390347  0.69965892  0.21089595    -0.88300
O279        O  0.80360262  0.68171024  0.27337917    -0.88400
O280        O  0.76444008  0.65756813  0.25968630    -0.75400
Mg281      Mg  0.79644984  0.78177839  0.29976076     1.58000
O282        O  0.83206724  0.72998999  0.35178754    -0.82800
H283        H  0.76780277  0.80254329  0.21311934    -0.06500
O284        O  0.73082045  0.71000263  0.22848681    -0.88100
H285        H  0.70051067  0.68418180  0.24746581    -0.06400
H286        H  0.81996594  0.71963729  0.18144317    -0.06500
C287        C  0.71178076  0.70511330  0.24742313     0.87000
C288        C  0.76734771  0.79123135  0.23400426     0.87600
C289        C  0.79892780  0.71918472  0.19260906     0.87600
H290        H  0.78440053  0.65126888  0.29881098    -0.06500
O291        O  0.77022322  0.71517314  0.32470759    -0.75500
Mg292      Mg  0.75500551  0.67277829  0.21267877     1.58000
H293        H  0.73081257  0.73503163  0.33049770    -0.06500
C294        C  0.66964144  0.77730109  0.22800764     0.92600
O295        O  0.71827979  0.72464018  0.16126585    -0.82800
C296        C  0.72697614  0.70055965  0.15029310     0.92700
O297        O  0.77229414  0.82236796  0.31451869    -0.82800
Mg298      Mg  0.81788509  0.70562469  0.31090756     1.58200
O299        O  0.68477345  0.76135205  0.21060999    -0.81100
O300        O  0.87161263  0.66960132  0.25957305    -0.82800
C301        C  0.05145164  0.66301024  0.32927432     0.03100
C302        C  0.02470732  0.66925168  0.31568042    -0.13000
C303        C  0.99890574  0.65511762  0.32514767     0.00600
C304        C  0.00009476  0.63415853  0.34765985    -0.11600
C305        C  0.02671215  0.62781817  0.36158420     0.03100
C306        C  0.05220638  0.64303250  0.35275909    -0.11000
H307        H  0.02398295  0.68497259  0.29781621     0.08700
H308        H  0.98014113  0.62292785  0.35449118     0.06200
H309        H  0.07271285  0.63933299  0.36395493     0.06100
C310        C  0.34023817  0.31066485  0.02332534     0.03100
C311        C  0.32725091  0.29983300  0.99771724    -0.13000
C312        C  0.33620713  0.31064970  0.97026334     0.00600
C313        C  0.35796372  0.33235216  0.96837816    -0.11600
C314        C  0.37205173  0.34234359  0.99366293     0.03100
C315        C  0.36255046  0.33186891  0.02114965    -0.11000
H316        H  0.31015181  0.28326799  0.99915230     0.08700
H317        H  0.36370692  0.34148467  0.94713314     0.06200
H318        H  0.37235406  0.34044005  0.04095959     0.06100
O319        O  0.24545340  0.18515071  0.72078613    -0.88400
C320        C  0.32871109  0.21776030  0.72434754     0.87700
Mg321      Mg  0.20896626  0.21155318  0.70751392     1.58100
O322        O  0.29518283  0.20748882  0.79319145    -0.88100
O323        O  0.25925586  0.15925928  0.75887638    -0.75400
C324        C  0.22419139  0.33494279  0.78413715     0.92700
O325        O  0.27573606  0.23487812  0.68074788    -0.75200
O326        O  0.21311260  0.32599750  0.76015619    -0.82800
Mg327      Mg  0.28366752  0.18654014  0.69284390     1.58000
C328        C  0.29906832  0.27142800  0.85627712     0.92600
O329        O  0.29407219  0.13726638  0.69959837    -0.81000
H330        H  0.27556718  0.18093611  0.82239894    -0.06400
C331        C  0.29198272  0.29018804  0.76001628     0.87600
O332        O  0.19620429  0.21969537  0.75570851    -0.75500
O333        O  0.30926088  0.19940999  0.72946548    -0.88300
O334        O  0.31632408  0.25621257  0.84030040    -0.81100
C335        C  0.37308727  0.19498448  0.79173310     0.92700
C336        C  0.30989547  0.12130009  0.71617070     0.92600
Mg337      Mg  0.24874701  0.26913920  0.80671691     1.58000
O338        O  0.23925576  0.31787983  0.80009145    -0.81000
O339        O  0.25654810  0.22093863  0.81869236    -0.75300
O340        O  0.35664631  0.17839751  0.77645743    -0.81100
O341        O  0.25746274  0.17432577  0.65331111    -0.82800
O342        O  0.17567837  0.27932215  0.72209678    -0.81100
C343        C  0.27617874  0.20232410  0.81207453     0.87000
O344        O  0.22295095  0.25699669  0.76989036    -0.88300
O345        O  0.28682401  0.27092679  0.77855240    -0.88400
O346        O  0.27316994  0.29752889  0.74096927    -0.75400
Mg347      Mg  0.30769549  0.17099850  0.76690964     1.58000
O348        O  0.36360141  0.21853593  0.80338469    -0.82800
H349        H  0.21885302  0.15616423  0.74071033    -0.06500
O350        O  0.23744254  0.24927311  0.70628226    -0.88100
H351        H  0.25769430  0.27536352  0.67708039    -0.06400
H352        H  0.19273560  0.23827598  0.79602963    -0.06500
C353        C  0.25661584  0.25401659  0.68745970     0.87000
C354        C  0.24033832  0.16630492  0.73978333     0.87600
C355        C  0.20337469  0.23870244  0.77472314     0.87600
H356        H  0.31344417  0.30039687  0.75940939    -0.06500
O357        O  0.33596076  0.23691147  0.74317713    -0.75500
Mg358      Mg  0.22482073  0.28599965  0.73267623     1.58000
H359        H  0.33916911  0.21809812  0.70295241    -0.06500
C360        C  0.23384399  0.18452947  0.64290622     0.92600
O361        O  0.16939116  0.23902481  0.69548515    -0.82800
C362        C  0.15955148  0.26288934  0.70628282     0.92700
O363        O  0.31998201  0.13128629  0.74005123    -0.82800
Mg364      Mg  0.32361089  0.24525625  0.79140744     1.58200
O365        O  0.21678648  0.20086962  0.65811324    -0.81100
O366        O  0.27490212  0.28106087  0.84650189    -0.82800
C367        C  0.34500556  0.00718960  0.67202004     0.03100
C368        C  0.36809940  0.00731140  0.65140007    -0.13000
C369        C  0.37881564  0.98086666  0.63966324     0.00600
C370        C  0.36555446  0.95435077  0.64841672    -0.11600
C371        C  0.34344964  0.95392764  0.67000804     0.03100
C372        C  0.33315998  0.98041072  0.68177831    -0.11000
H373        H  0.37787851  0.02804304  0.64476840     0.08700
H374        H  0.37294374  0.93381506  0.63897677     0.06200
H375        H  0.31621158  0.98019275  0.69862345     0.06100
O376        O  0.23168501  0.75008127  0.72186371    -0.88400
C377        C  0.26588539  0.66830145  0.72367337     0.87700
Mg378      Mg  0.25766416  0.78738858  0.71001963     1.58100
O379        O  0.25286701  0.69944963  0.79279767    -0.88100
O380        O  0.20449934  0.73492005  0.75877575    -0.75400
C381        C  0.37963058  0.77406840  0.78852093     0.92700
O382        O  0.28267738  0.72266758  0.68153834    -0.75200
O383        O  0.37085687  0.78536297  0.76456147    -0.82800
Mg384      Mg  0.23414066  0.71319275  0.69261439     1.58000
C385        C  0.31281527  0.69465181  0.85837504     0.92600
O386        O  0.18511154  0.70173165  0.69876208    -0.81000
H387        H  0.22498666  0.71735710  0.82169879    -0.06400
C388        C  0.33681527  0.70559222  0.76290645     0.87600
O389        O  0.26436059  0.79921689  0.75845897    -0.75500
O390        O  0.24652195  0.68660233  0.72879840    -0.88300
O391        O  0.29906290  0.67793606  0.84080265    -0.81100
C392        C  0.24123290  0.62115546  0.78985730     0.92700
C393        C  0.16868723  0.68560203  0.71488286     0.92600
Mg394      Mg  0.31335107  0.74675470  0.80973864     1.58000
O395        O  0.36251305  0.75818823  0.80431814    -0.81000
O396        O  0.26483914  0.73730652  0.81984760    -0.75300
O397        O  0.22481348  0.63802913  0.77505435    -0.81100
O398        O  0.22213674  0.74063763  0.65338307    -0.82800
O399        O  0.32425802  0.82196180  0.72531432    -0.81100
C400        C  0.24675343  0.71758866  0.81204684     0.87000
O401        O  0.30203484  0.77348559  0.77305556    -0.88300
O402        O  0.31665519  0.70973438  0.78074103    -0.88400
O403        O  0.34436897  0.72499922  0.74424920    -0.75400
Mg404      Mg  0.21717216  0.68674858  0.76597747     1.58000
O405        O  0.26481030  0.63055762  0.80140697    -0.82800
H406        H  0.20136499  0.77557513  0.74081675    -0.06500
O407        O  0.29581626  0.75977441  0.70906673    -0.88100
H408        H  0.32302878  0.74167703  0.67962618    -0.06400
H409        H  0.28184188  0.80247062  0.79912855    -0.06500
C410        C  0.30138973  0.74173417  0.68956472     0.87000
C411        C  0.21193331  0.75437693  0.74011718     0.87600
C412        C  0.28309585  0.79231484  0.77772978     0.87600
H413        H  0.34764363  0.68451885  0.76253994    -0.06500
O414        O  0.28483243  0.66134857  0.74272684    -0.75500
Mg415      Mg  0.33173887  0.77300154  0.73614944     1.58000
H416        H  0.26737112  0.65874414  0.70201187    -0.06500
C417        C  0.23295493  0.76481770  0.64432303     0.92600
O418        O  0.28437799  0.82761969  0.69831135    -0.82800
C419        C  0.30808964  0.83771397  0.70892912     0.92700
O420        O  0.17814158  0.67447842  0.73859390    -0.82800
Mg421      Mg  0.29103484  0.67190481  0.79150455     1.58200
O422        O  0.24860626  0.78078431  0.66096224    -0.81100
O423        O  0.32352346  0.71913801  0.84981025    -0.82800
C424        C  0.05205137  0.65161474  0.67880653     0.03100
C425        C  0.02514220  0.66096543  0.69063328    -0.13000
C426        C  0.99878426  0.64860427  0.68057520     0.00600
C427        C  0.99984069  0.62551580  0.66020952    -0.11600
C428        C  0.02670797  0.61624866  0.64808020     0.03100
C429        C  0.05257582  0.63035711  0.65671454    -0.11000
H430        H  0.02472862  0.67788392  0.70731452     0.08700
H431        H  0.97957065  0.61507498  0.65349201     0.06200
H432        H  0.07330218  0.62489867  0.64636344     0.06100
C433        C  0.04265952  0.29780260  0.67103970     0.03100
C434        C  0.04222051  0.31999688  0.64972781    -0.13000
C435        C  0.01622320  0.32685493  0.63473187     0.00600
C436        C  0.98998503  0.31297682  0.64395196    -0.11600
C437        C  0.98976813  0.29243991  0.66699616     0.03100
C438        C  0.01634043  0.28443636  0.68006169    -0.11000
H439        H  0.06251087  0.33133754  0.64443328     0.08700
H440        H  0.96938692  0.31853232  0.63380107     0.06200
H441        H  0.01652443  0.26795229  0.69724711     0.06100
O442        O  0.78671566  0.25029286  0.79094533    -0.88400
C443        C  0.70458798  0.24818951  0.75654492     0.87700
Mg444      Mg  0.82430048  0.26187257  0.76472740     1.58100
O445        O  0.73596828  0.17895684  0.76792553    -0.88100
O446        O  0.77077300  0.21307887  0.81722224    -0.75400
C447        C  0.81078966  0.18626726  0.64046632     0.92700
O448        O  0.75947089  0.29159876  0.74096334    -0.75200
O449        O  0.82053025  0.21043806  0.65039978    -0.82800
Mg450      Mg  0.74992340  0.27970076  0.78914808     1.58000
C451        C  0.73081504  0.11352271  0.70508305     0.92600
O452        O  0.73793378  0.27304317  0.83830611    -0.81000
H453        H  0.75440608  0.14952404  0.79457482    -0.06400
C454        C  0.74114550  0.21069470  0.68470029     0.87600
O455        O  0.83464672  0.21325307  0.75636174    -0.75500
O456        O  0.72282885  0.24335572  0.77592583    -0.88300
O457        O  0.71466654  0.13050235  0.72044754    -0.81100
C458        C  0.65769172  0.17975373  0.78004778     0.92700
C459        C  0.72084592  0.25701791  0.85398152     0.92600
Mg460      Mg  0.78257279  0.16277772  0.70546912     1.58000
O461        O  0.79454244  0.16928621  0.65607630    -0.81000
O462        O  0.77312017  0.15170019  0.75401667    -0.75300
O463        O  0.67321576  0.19591374  0.79674244    -0.81100
O464        O  0.77828601  0.31895605  0.80166269    -0.82800
O465        O  0.85757566  0.24706913  0.69687714    -0.81100
C466        C  0.75414910  0.15955095  0.77305015     0.87000
O467        O  0.80905984  0.19944078  0.71822261    -0.88300
O468        O  0.74557074  0.19175523  0.70361671    -0.88400
O469        O  0.76033099  0.22996531  0.67811340    -0.75400
Mg470      Mg  0.72256456  0.20569269  0.80446470     1.58000
O471        O  0.66813017  0.16867207  0.75660864    -0.82800
H472        H  0.81162496  0.23053737  0.82094704    -0.06500
O473        O  0.79620487  0.26389861  0.72707804    -0.88100
H474        H  0.77875106  0.29417253  0.70070768    -0.06400
H475        H  0.83732175  0.17272621  0.73818046    -0.06500
C476        C  0.77854308  0.28378211  0.72206578     0.87000
C477        C  0.79056030  0.23163506  0.81027205     0.87600
C478        C  0.82757685  0.19430545  0.73722577     0.87600
H479        H  0.71993602  0.21156098  0.67428847    -0.06500
O480        O  0.69767628  0.22887076  0.73766069    -0.75500
Mg481      Mg  0.80853393  0.23744401  0.69018874     1.58000
H482        H  0.69483545  0.26973833  0.75512582    -0.06500
C483        C  0.80297072  0.32791784  0.79177288     0.92600
O484        O  0.86493209  0.27284549  0.73740479    -0.82800
C485        C  0.87432058  0.26223817  0.71328273     0.92700
O486        O  0.70985855  0.23331371  0.84410239    -0.82800
Mg487      Mg  0.70845280  0.18004576  0.72995629     1.58200
O488        O  0.81913217  0.31124352  0.77596256    -0.81100
O489        O  0.75493311  0.12265987  0.69386655    -0.82800
C490        C  0.69872263  0.94092560  0.67266523     0.03100
C491        C  0.67827680  0.94091081  0.64983472    -0.13000
C492        C  0.66536541  0.96716024  0.64041760     0.00600
C493        C  0.67461571  0.99378342  0.65279016    -0.11600
C494        C  0.69595156  0.99438667  0.67482839     0.03100
C495        C  0.70731731  0.96769830  0.68537244    -0.11000
H496        H  0.67244619  0.92035356  0.63948049     0.08700
H497        H  0.66528604  0.01422535  0.64508431     0.06200
H498        H  0.72289079  0.96771585  0.70318636     0.06100
O499        O  0.73154377  0.69848612  0.78701913    -0.88400
C500        C  0.76159913  0.78286031  0.78174562     0.87700
Mg501      Mg  0.75854430  0.66237803  0.80026828     1.58100
O502        O  0.75306143  0.74850980  0.71353885    -0.88100
O503        O  0.70549587  0.71150315  0.74892151    -0.75400
C504        C  0.88240893  0.67910356  0.72339448     0.92700
O505        O  0.78015049  0.73036795  0.82598249    -0.75200
O506        O  0.87278495  0.66877083  0.74758014    -0.82800
Mg507      Mg  0.73160887  0.73685385  0.81438247     1.58000
C508        C  0.81814955  0.75461415  0.64968036     0.92600
O509        O  0.68193215  0.74550558  0.80770075    -0.81000
H510        H  0.72767494  0.72829193  0.68421611    -0.06400
C511        C  0.83607387  0.74751832  0.74640381     0.87600
O512        O  0.76736873  0.65042822  0.75197549    -0.75500
O513        O  0.74353868  0.76310296  0.77714102    -0.88300
O514        O  0.80189862  0.77076955  0.66579471    -0.81100
C515        C  0.73737150  0.82589500  0.71151635     0.92700
C516        C  0.66519283  0.76030244  0.79090836     0.92600
Mg517      Mg  0.81676688  0.70391428  0.69987666     1.58000
O518        O  0.86599726  0.69427652  0.70666351    -0.81000
O519        O  0.76843532  0.71093310  0.68780792    -0.75300
O520        O  0.72079617  0.80959679  0.72746616    -0.81100
O521        O  0.72056640  0.71018936  0.85479355    -0.82800
O522        O  0.82620190  0.63149139  0.78520558    -0.81100
C523        C  0.74888065  0.72958563  0.69460363     0.87000
O524        O  0.80421614  0.67796364  0.73716410    -0.88300
O525        O  0.81717517  0.74194241  0.72788052    -0.88400
O526        O  0.84346293  0.72890107  0.76576745    -0.75400
Mg527      Mg  0.71553958  0.76018681  0.73959664     1.58000
O528        O  0.76200260  0.81674456  0.70181514    -0.82800
H529        H  0.70332859  0.67110970  0.76769278    -0.06500
O530        O  0.79541623  0.69212933  0.80104564    -0.88100
H531        H  0.82097905  0.71318675  0.82963137    -0.06400
H532        H  0.78586053  0.64767675  0.71138530    -0.06500
C533        C  0.79967461  0.71155134  0.81948935     0.87000
C534        C  0.71291830  0.69284751  0.76824202     0.87600
C535        C  0.78618096  0.65814550  0.73265471     0.87600
H536        H  0.84590626  0.76915448  0.74670734    -0.06500
O537        O  0.78083826  0.79017529  0.76271765    -0.75500
Mg538      Mg  0.83249201  0.68036852  0.77462050     1.58000
H539        H  0.76165043  0.79351889  0.80292559    -0.06500
C540        C  0.73139515  0.68669261  0.86522913     0.92600
O541        O  0.78648663  0.62237515  0.81222934    -0.82800
C542        C  0.81043067  0.61384875  0.80031053     0.92700
O543        O  0.67481210  0.77089840  0.76677742    -0.82800
Mg544      Mg  0.79010813  0.77787342  0.71467587     1.58200
O545        O  0.74739439  0.66986385  0.84949080    -0.81100
O546        O  0.82882463  0.73078576  0.65953534    -0.82800
C547        C  0.34392376  0.65751890  0.02867078     0.03100
C548        C  0.36485624  0.63490024  0.02806996    -0.13000
C549        C  0.37359120  0.62210608  0.00134002     0.00600
C550        C  0.36036318  0.63148660  0.97530095    -0.11600
C551        C  0.34068437  0.65502077  0.97547568     0.03100
C552        C  0.33250288  0.66804132  0.00214749    -0.11000
H553        H  0.37448896  0.62741332  0.04840765     0.08700
H554        H  0.36601619  0.62109059  0.95466362     0.06200
H555        H  0.31759890  0.68651744  0.00218905     0.06100
C556        C  0.69926618  0.30679008  0.02314136     0.03100
C557        C  0.70683470  0.29293975  0.99662349    -0.13000
C558        C  0.69327164  0.30134893  0.97036458     0.00600
C559        C  0.67139309  0.32295729  0.97105481    -0.11600
C560        C  0.66522639  0.33873952  0.99690592     0.03100
C561        C  0.67954100  0.33038801  0.02284330    -0.11000
H562        H  0.72301093  0.27558128  0.99644205     0.08700
H563        H  0.65968795  0.32790416  0.95108002     0.06200
H564        H  0.67504636  0.34186466  0.04317413     0.06100
C565        C  0.69204158  0.65905148  0.03606488     0.03100
C566        C  0.66958218  0.63796537  0.03672499    -0.13000
C567        C  0.66112815  0.62358283  0.01094720     0.00600
C568        C  0.67422626  0.63195686  0.98417230    -0.11600
C569        C  0.69549351  0.65422289  0.98314934     0.03100
C570        C  0.70482832  0.66742434  0.00920879    -0.11000
H571        H  0.65869258  0.63300047  0.05735746     0.08700
H572        H  0.66748694  0.62154301  0.96393364     0.06200
H573        H  0.72166829  0.68428956  0.00857308     0.06100
C574        C  0.48877338  0.16728305  0.16599512     0.03100
C575        C  0.48888234  0.14611015  0.14364005    -0.13000
C576        C  0.51492310  0.13160795  0.13542385     0.00600
C577        C  0.54084268  0.13857068  0.15047949    -0.11600
C578        C  0.54159295  0.16147312  0.17097125     0.03100
C579        C  0.51528958  0.17520630  0.17938837    -0.11000
H580        H  0.46842576  0.14084945  0.13291557     0.08700
H581        H  0.56092077  0.12684754  0.14559264     0.06200
H582        H  0.51545543  0.19204043  0.19615127     0.06100
C583        C  0.19285908  0.51854226  0.17627893     0.03100
C584        C  0.17088673  0.51742359  0.15472838    -0.13000
C585        C  0.16185776  0.49039987  0.14273769     0.00600
C586        C  0.17600211  0.46467350  0.15183408    -0.11600
C587        C  0.19672480  0.46525026  0.17426884     0.03100
C588        C  0.20535724  0.49221752  0.18634337    -0.11000
H589        H  0.16067579  0.53762277  0.14758629     0.08700
H590        H  0.17007758  0.44376491  0.14219912     0.06200
H591        H  0.22198141  0.49268061  0.20318158     0.06100
C592        C  0.19370357  0.16122312  0.47236954     0.03100
C593        C  0.17089556  0.14041774  0.47200507    -0.13000
C594        C  0.16336609  0.12429912  0.49744322     0.00600
C595        C  0.17693974  0.13216668  0.52397975    -0.11600
C596        C  0.19713287  0.15546871  0.52520268     0.03100
C597        C  0.20628906  0.16924653  0.49914369    -0.11000
H598        H  0.15995734  0.13606995  0.45147690     0.08700
H599        H  0.17185149  0.12036585  0.54403885     0.06200
H600        H  0.22340320  0.18581862  0.49961202     0.06100
N601        N  0.02119558  0.93413250  0.50341102    -0.36600
N602        N  0.06549725  0.97969124  0.50003618    -0.57200
N603        N  0.01977256  0.02285544  0.49277011    -0.36600
N604        N  0.97541196  0.97663358  0.49747949    -0.57200
C605        C  0.04515577  0.91956112  0.51252739     0.26900
C606        C  0.99749805  0.91824432  0.51189828     0.27000
C607        C  0.04289957  0.04064728  0.49862466     0.26900
C608        C  0.99497892  0.03868070  0.49693395     0.26900
C609        C  0.08275331  0.95580973  0.49687727     0.35600
C610        C  0.08240835  0.00330836  0.49353348     0.35600
C611        C  0.95974068  0.95180735  0.49311338     0.35600
C612        C  0.95896073  0.99891527  0.48729459     0.35600
C613        C  0.03668537  0.89424626  0.52734915    -0.21900
C614        C  0.00647599  0.89347081  0.52705891    -0.21900
C615        C  0.03256180  0.06835617  0.50587443    -0.21900
C616        C  0.00240802  0.06693525  0.50540815    -0.21900
C617        C  0.11076113  0.96423281  0.48822034    -0.23000
C618        C  0.11074792  0.99429226  0.48674860    -0.23000
C619        C  0.93321006  0.95828422  0.48004155    -0.23000
C620        C  0.93270656  0.98820655  0.47634976    -0.23000
C621        C  0.07422600  0.92688758  0.50449418    -0.18300
C622        C  0.96855355  0.92374914  0.50265911    -0.18300
C623        C  0.96606621  0.02889902  0.49078836    -0.18300
C624        C  0.07300406  0.03283012  0.49603610    -0.18300
H625        H  0.05082955  0.87759131  0.53648530     0.14600
H626        H  0.99274767  0.87605320  0.53585602     0.14600
H627        H  0.04524202  0.08782726  0.51071408     0.14600
H628        H  0.98769477  0.08497666  0.50998130     0.14600
H629        H  0.12957515  0.95032286  0.48426750     0.12900
H630        H  0.12975097  0.00766685  0.48162173     0.12900
H631        H  0.91592301  0.94312542  0.47408553     0.12900
H632        H  0.91487255  0.00071303  0.46709401     0.12900
H633        H  0.02126869  0.95122292  0.48821245     0.26100
H634        H  0.02085405  0.00214282  0.48329095     0.26100
N635        N  0.52383869  0.98324897  0.04492940    -0.36600
N636        N  0.52756571  0.93546814  0.00269835    -0.57200
N637        N  0.51817510  0.97630913  0.95560342    -0.36600
N638        N  0.51259523  0.02417812  0.99754954    -0.57200
C639        C  0.52197144  0.95975040  0.06313663     0.26900
C640        C  0.51607793  0.00727658  0.06059594     0.27000
C641        C  0.51394839  0.95043397  0.94171265     0.26900
C642        C  0.50592029  0.99742906  0.93891946     0.26900
C643        C  0.53650223  0.92139455  0.02708590     0.35600
C644        C  0.53465409  0.91804099  0.97980003     0.35600
C645        C  0.51702621  0.04358488  0.01952566     0.35600
C646        C  0.51438315  0.03958056  0.97216604     0.35600
C647        C  0.51320298  0.96902096  0.09081104    -0.21900
C648        C  0.51016357  0.99898252  0.08938980    -0.21900
C649        C  0.49866743  0.95512872  0.91595986    -0.21900
C650        C  0.49359643  0.98485239  0.91418923    -0.21900
C651        C  0.54946718  0.89491420  0.01969384    -0.23000
C652        C  0.54847495  0.89286810  0.98965369    -0.23000
C653        C  0.52095010  0.07155642  0.00795590    -0.23000
C654        C  0.51999268  0.06888322  0.97802872    -0.23000
C655        C  0.52982408  0.93050921  0.05595618    -0.18300
C656        C  0.51581233  0.03657858  0.04987224    -0.18300
C657        C  0.50837967  0.02792704  0.94405126    -0.18300
C658        C  0.52572092  0.92320824  0.95066422    -0.18300
H659        H  0.50999297  0.95575768  0.11031290     0.14600
H660        H  0.50447553  0.01289267  0.10774194     0.14600
H661        H  0.49239640  0.93892380  0.89982429     0.14600
H662        H  0.48266263  0.99603619  0.89640775     0.14600
H663        H  0.55806226  0.87848831  0.03447119     0.12900
H664        H  0.55620161  0.87454585  0.97666591     0.12900
H665        H  0.52401088  0.09197671  0.01958485     0.12900
H666        H  0.52239671  0.08672193  0.96247298     0.12900
H667        H  0.53285346  0.98336357  0.02393059     0.26100
H668        H  0.53210318  0.97989941  0.97321446     0.26100
N669        N  0.02291532  0.47125684  0.04076992    -0.36600
N670        N  0.97834148  0.46327520  0.99630981    -0.57200
N671        N  0.02478555  0.46516428  0.93042510    -0.36600
N672        N  0.06948168  0.47066506  0.99685483    -0.57200
C673        C  0.99816247  0.47748093  0.05644683     0.26900
C674        C  0.04614332  0.48073804  0.05676666     0.27000
C675        C  0.00212369  0.44862063  0.94047368     0.26900
C676        C  0.04922789  0.45254739  0.94122914     0.26900
C677        C  0.96016219  0.46305159  0.01972330     0.35600
C678        C  0.96154560  0.45883948  0.97242823     0.35600
C679        C  0.08683059  0.47213357  0.02051829     0.35600
C680        C  0.08731773  0.46858184  0.97310945     0.35600
C681        C  0.00588345  0.49093152  0.08255941    -0.21900
C682        C  0.03594609  0.49295667  0.08276750    -0.21900
C683        C  0.01237356  0.42449914  0.95579859    -0.21900
C684        C  0.04221427  0.42699892  0.95630001    -0.21900
C685        C  0.93158998  0.45751506  0.01065164    -0.23000
C686        C  0.93244257  0.45531132  0.98047920    -0.23000
C687        C  0.11609624  0.47019231  0.01175714    -0.23000
C688        C  0.11638912  0.46832598  0.98150741    -0.23000
C689        C  0.96865021  0.47103076  0.04846064    -0.18300
C690        C  0.07647539  0.47814898  0.04928444    -0.18300
C691        C  0.07618669  0.46707634  0.94437391    -0.18300
C692        C  0.97338652  0.45898841  0.94375581    -0.18300
H693        H  0.99133255  0.49876107  0.09971593     0.14600
H694        H  0.04883746  0.50262997  0.10011252     0.14600
H695        H  0.99937967  0.40853544  0.96790416     0.14600
H696        H  0.05697929  0.41326941  0.96871415     0.14600
H697        H  0.91199942  0.45622801  0.02419846     0.12900
H698        H  0.91397261  0.45140299  0.96622293     0.12900
H699        H  0.13526581  0.47090027  0.02558316     0.12900
H700        H  0.13558355  0.46656847  0.96746727     0.12900
H701        H  0.02404780  0.45895576  0.02159760     0.26100
H702        H  0.02336180  0.48620548  0.92137542     0.26100
N703        N  0.56341867  0.48061948  0.00285500    -0.36600
N704        N  0.51999966  0.43539850  0.99429247    -0.57200
N705        N  0.47460181  0.48041539  0.99672945    -0.36600
N706        N  0.51752784  0.52537576  0.00385081    -0.57200
C707        C  0.58105657  0.45769361  0.99596029     0.26900
C708        C  0.57948775  0.50548944  0.99955158     0.27000
C709        C  0.46013741  0.45717894  0.98552274     0.26900
C710        C  0.45876161  0.50461457  0.99033826     0.26900
C711        C  0.54345720  0.41800223  0.99917227     0.35600
C712        C  0.49588977  0.41818528  0.99713769     0.35600
C713        C  0.54063798  0.54159331  0.01261492     0.35600
C714        C  0.49322307  0.54125236  0.00985750     0.35600
C715        C  0.60884522  0.46827879  0.98875516    -0.21900
C716        C  0.60765559  0.49832045  0.99042064    -0.21900
C717        C  0.43503022  0.46666638  0.97142131    -0.21900
C718        C  0.43427407  0.49673961  0.97427745    -0.21900
C719        C  0.53417413  0.38937750  0.00417241    -0.23000
C720        C  0.50407436  0.38965085  0.00366953    -0.23000
C721        C  0.53102363  0.56797265  0.02433983    -0.23000
C722        C  0.50089490  0.56770794  0.02269184    -0.23000
C723        C  0.57311266  0.42754478  0.99798859    -0.18300
C724        C  0.57022886  0.53424818  0.00692424    -0.18300
C725        C  0.46468119  0.53303338  0.00113748    -0.18300
C726        C  0.46687774  0.42761431  0.99166464    -0.18300
H727        H  0.62836220  0.45601425  0.98326379     0.14600
H728        H  0.62585558  0.51311359  0.98617856     0.14600
H729        H  0.41847806  0.45317929  0.96109138     0.14600
H730        H  0.41708802  0.51103780  0.96648502     0.14600
H731        H  0.54751473  0.37017403  0.00786694     0.12900
H732        H  0.49000405  0.37076169  0.00715029     0.12900
H733        H  0.54436905  0.58581532  0.03254164     0.12900
H734        H  0.48640785  0.58525247  0.02946597     0.12900
H735        H  0.54275299  0.47921630  0.01263406     0.26100
H736        H  0.49164324  0.47918381  0.01177219     0.26100
N737        N  0.02256892  0.52411027  0.50309866    -0.36600
N738        N  0.01395775  0.48404148  0.45552959    -0.57200
N739        N  0.01243169  0.43544368  0.49701566    -0.36600
N740        N  0.02279340  0.47567716  0.54481792    -0.57200
C741        C  0.02992026  0.54138514  0.47995728     0.26900
C742        C  0.03317242  0.53715726  0.52737071     0.27000
C743        C  0.01561183  0.42120212  0.47114183     0.26900
C744        C  0.01971051  0.41637496  0.51858090     0.26900
C745        C  0.00996526  0.50958174  0.44105739     0.35600
C746        C  0.00391649  0.46260414  0.43786272     0.35600
C747        C  0.02120439  0.49839337  0.56383612     0.35600
C748        C  0.01770701  0.45101133  0.56067415     0.35600
C749        C  0.04569253  0.56553971  0.48961413    -0.21900
C750        C  0.04767417  0.56291087  0.51964693    -0.21900
C751        C  0.02526858  0.39286061  0.47627099    -0.21900
C752        C  0.02718655  0.38957974  0.50615278    -0.21900
C753        C  0.99712002  0.50442673  0.41409956    -0.23000
C754        C  0.99322024  0.47457308  0.41208945    -0.23000
C755        C  0.01539894  0.48807594  0.59194318    -0.23000
C756        C  0.01401576  0.45807161  0.59006875    -0.23000
C757        C  0.02048007  0.53697816  0.45085430    -0.18300
C758        C  0.02706888  0.52803641  0.55640818    -0.18300
C759        C  0.01781390  0.42215941  0.54911431    -0.18300
C760        C  0.00778162  0.43237374  0.44328319    -0.18300
H761        H  0.05407131  0.58360972  0.47650158     0.14600
H762        H  0.05783001  0.57857381  0.53426443     0.14600
H763        H  0.02947677  0.37588322  0.46020895     0.14600
H764        H  0.03311977  0.36944831  0.51712237     0.14600
H765        H  0.99176387  0.52041508  0.39739637     0.12900
H766        H  0.98433676  0.46293322  0.39346320     0.12900
H767        H  0.01300905  0.50065632  0.61192157     0.12900
H768        H  0.01053181  0.44325176  0.60836448     0.12900
H769        H  0.00761691  0.50678698  0.50299617     0.26100
H770        H  0.00244981  0.45572851  0.49996416     0.26100
N771        N  0.56796118  0.97254866  0.49765232    -0.36600
N772        N  0.52477800  0.97684281  0.45205182    -0.57200
N773        N  0.47955066  0.98071302  0.49668958    -0.36600
N774        N  0.52313840  0.97533863  0.54226754    -0.57200
C775        C  0.58358744  0.96416455  0.47381542     0.26900
C776        C  0.58289299  0.96376475  0.52155732     0.27000
C777        C  0.46355918  0.97501832  0.47248137     0.26900
C778        C  0.46268934  0.97387315  0.52032404     0.26900
C779        C  0.54938822  0.98209258  0.43618095     0.35600
C780        C  0.50216141  0.98642888  0.43577074     0.35600
C781        C  0.54707218  0.98028476  0.55885538     0.35600
C782        C  0.49970168  0.98379878  0.55843463     0.35600
C783        C  0.60860421  0.94942672  0.48260238    -0.21900
C784        C  0.60814966  0.94914479  0.51285669    -0.21900
C785        C  0.43620574  0.96423661  0.48079638    -0.21900
C786        C  0.43566165  0.96349585  0.51105847    -0.21900
C787        C  0.54244164  0.99506990  0.40960549    -0.23000
C788        C  0.51240456  0.99785092  0.40935541    -0.23000
C789        C  0.53883747  0.99201596  0.58572292    -0.23000
C790        C  0.50874401  0.99418181  0.58548348    -0.23000
C791        C  0.57766660  0.97334805  0.44486643    -0.18300
C792        C  0.57585279  0.97205271  0.55062577    -0.18300
C793        C  0.47025534  0.97982508  0.54978664    -0.18300
C794        C  0.47241721  0.98177903  0.44337979    -0.18300
H795        H  0.62593896  0.94088454  0.46868514     0.14600
H796        H  0.62503861  0.94027491  0.52683720     0.14600
H797        H  0.41831027  0.95811083  0.46656813     0.14600
H798        H  0.41722084  0.95682841  0.52468728     0.14600
H799        H  0.55736945  0.00150364  0.39211266     0.12900
H800        H  0.49954638  0.00666460  0.39155557     0.12900
H801        H  0.55295945  0.99802181  0.60373083     0.12900
H802        H  0.49508200  0.00219224  0.60327278     0.12900
H803        H  0.55073610  0.98749329  0.49764095     0.26100
H804        H  0.49929087  0.99228397  0.49712722     0.26100
C805        C  0.11313491  0.06166925  0.47173527    -0.20300
C806        C  0.09586727  0.05648349  0.49688111    -0.06900
C807        C  0.10182520  0.07266259  0.52261821     0.14000
C808        C  0.12266017  0.09539493  0.52154278    -0.20400
C809        C  0.14095762  0.09994679  0.49676672    -0.06900
C810        C  0.13718932  0.08102794  0.47225066     0.14000
C811        C  0.15930049  0.07818334  0.44756286    -0.23700
H812        H  0.10935488  0.04856563  0.45226945     0.15200
H813        H  0.12481879  0.10918628  0.54071996     0.15300
C814        C  0.08719891  0.06621335  0.55178535    -0.23700
H815        H  0.16438599  0.05461329  0.44400772     0.05500
H816        H  0.18059845  0.08880143  0.45244342     0.08700
H817        H  0.15010559  0.08730482  0.42700448     0.08700
H818        H  0.07218793  0.04704277  0.55109609     0.08700
H819        H  0.07453511  0.08566592  0.55915690     0.08700
H820        H  0.10425365  0.06132060  0.56833498     0.05500
C821        C  0.09780139  0.46284102  0.09677874    -0.20300
C822        C  0.09828140  0.48265053  0.07319631    -0.06900
C823        C  0.11796354  0.50678027  0.07391345     0.14000
C824        C  0.13833637  0.50883830  0.09682126    -0.20400
C825        C  0.13818557  0.48869270  0.12028657    -0.06900
C826        C  0.11625173  0.46642812  0.12094914     0.14000
C827        C  0.11031335  0.44706130  0.14728128    -0.23700
H828        H  0.08184499  0.44509756  0.09692725     0.15200
H829        H  0.15446790  0.52638630  0.09625537     0.15300
C830        C  0.11772121  0.53102889  0.05135147    -0.23700
H831        H  0.08663999  0.44813762  0.15321682     0.05500
H832        H  0.12242984  0.45400599  0.16706228     0.08700
H833        H  0.11592455  0.42397597  0.14192227     0.08700
H834        H  0.10002526  0.52849628  0.03503092     0.08700
H835        H  0.13912382  0.53168589  0.03951620     0.08700
H836        H  0.11425747  0.55239135  0.06253196     0.05500
C837        C  0.49045464  0.08951979  0.10987433    -0.20300
C838        C  0.51482310  0.10854433  0.11198152    -0.06900
C839        C  0.53862775  0.10452557  0.09200278     0.14000
C840        C  0.53911233  0.07965443  0.07393689    -0.20400
C841        C  0.51455732  0.06120183  0.07148332    -0.06900
C842        C  0.48933070  0.06715836  0.08877835     0.14000
C843        C  0.46077899  0.05068238  0.08541706    -0.23700
H844        H  0.47182391  0.09211663  0.12455414     0.15200
H845        H  0.55811985  0.07576539  0.05998791     0.15300
C846        C  0.56273208  0.12687728  0.08711026    -0.23700
H847        H  0.44301811  0.06645363  0.08028294     0.05500
H848        H  0.45514635  0.03920982  0.10625838     0.08700
H849        H  0.46145468  0.03428381  0.06750053     0.08700
H850        H  0.58390602  0.11804347  0.09506196     0.08700
H851        H  0.55813644  0.14824643  0.09769633     0.08700
H852        H  0.56490723  0.13162049  0.06325746     0.05500
C853        C  0.61472951  0.60357584  0.99105059    -0.20300
C854        C  0.63758156  0.60093265  0.01136571    -0.06900
C855        C  0.63828841  0.57604803  0.03007598     0.14000
C856        C  0.61536422  0.55543230  0.02886806    -0.20400
C857        C  0.59283091  0.55792472  0.00821640    -0.06900
C858        C  0.59296769  0.58198295  0.98852368     0.14000
C859        C  0.57131834  0.58514575  0.96386787    -0.23700
H860        H  0.61431964  0.62231038  0.97632991     0.15200
H861        H  0.61548388  0.53660664  0.04346922     0.15300
C862        C  0.66390167  0.56986315  0.04990661    -0.23700
H863        H  0.58342784  0.58701284  0.94267475     0.05500
H864        H  0.55813319  0.60532865  0.96721519     0.08700
H865        H  0.55613908  0.56623294  0.96192879     0.08700
H866        H  0.66477837  0.58588701  0.06809754     0.08700
H867        H  0.68471747  0.57070405  0.03705683     0.08700
H868        H  0.66218205  0.54771974  0.06005514     0.05500
C869        C  0.62413383  0.36564490  0.02192169    -0.20300
C870        C  0.64284711  0.36282626  0.99728044    -0.06900
C871        C  0.63917706  0.38274097  0.97355978     0.14000
C872        C  0.61483552  0.40152940  0.97345631    -0.20400
C873        C  0.59694137  0.40497951  0.99844367    -0.06900
C874        C  0.60259584  0.38753236  0.02349796     0.14000
C875        C  0.58664698  0.39151376  0.05237327    -0.23700
H876        H  0.62641149  0.35095471  0.04047362     0.15200
H877        H  0.61104812  0.41525198  0.95439200     0.15300
C878        C  0.66151520  0.38683651  0.94922320    -0.23700
H879        H  0.60285063  0.39592696  0.06989582     0.05500
H880        H  0.57433511  0.37115342  0.05801000     0.08700
H881        H  0.57106629  0.41011846  0.05220600     0.08700
H882        H  0.65225353  0.37920351  0.92810702     0.08700
H883        H  0.68248908  0.37546538  0.95347817     0.08700
H884        H  0.66713466  0.41051413  0.94717493     0.05500
C885        C  0.39357032  0.57420200  0.01830121    -0.20300
C886        C  0.39688728  0.59930862  0.00061395    -0.06900
C887        C  0.42288544  0.60280965  0.98361299     0.14000
C888        C  0.44415276  0.58059317  0.98382498    -0.20400
C889        C  0.44077283  0.55542807  0.00135315    -0.06900
C890        C  0.41529312  0.55237767  0.01915047     0.14000
C891        C  0.41139017  0.52678240  0.03989544    -0.23700
H892        H  0.37392200  0.57179077  0.03170293     0.15200
H893        H  0.46388993  0.58304479  0.97055813     0.15300
C894        C  0.42923018  0.63053102  0.96645189    -0.23700
H895        H  0.39105427  0.52886244  0.05334983     0.05500
H896        H  0.43030225  0.52570095  0.05504735     0.08700
H897        H  0.40979143  0.50591735  0.02757657     0.08700
H898        H  0.42724218  0.64989949  0.98108470     0.08700
H899        H  0.41391186  0.63278341  0.94786671     0.08700
H900        H  0.45180518  0.63054960  0.95703697     0.05500
C901        C  0.70073925  0.69352220  0.91017447    -0.20300
C902        C  0.72424918  0.67878430  0.89635378    -0.06900
C903        C  0.73971852  0.65716824  0.91260117     0.14000
C904        C  0.73051521  0.65033606  0.94138708    -0.20400
C905        C  0.70651733  0.66449272  0.95437488    -0.06900
C906        C  0.69169675  0.68657706  0.93883751     0.14000
C907        C  0.66595062  0.70244296  0.95237209    -0.23700
H908        H  0.68876973  0.71020263  0.89830731     0.15200
H909        H  0.74169510  0.63339205  0.95368346     0.15300
C910        C  0.76596041  0.64119940  0.90020609    -0.23700
H911        H  0.65681628  0.71917207  0.93725286     0.05500
H912        H  0.67297468  0.71375771  0.97271165     0.08700
H913        H  0.64821728  0.68651386  0.95786892     0.08700
H914        H  0.78304386  0.65726489  0.89320528     0.08700
H915        H  0.75930209  0.62743363  0.88131559     0.08700
H916        H  0.77596505  0.62635224  0.91666627     0.05500
C917        C  0.64657913  0.98581373  0.59286313    -0.20300
C918        C  0.64260526  0.96721774  0.61722880    -0.06900
C919        C  0.61624312  0.95079692  0.61990660     0.14000
C920        C  0.59528462  0.95249501  0.59758626    -0.20400
C921        C  0.59920500  0.97120430  0.57334357    -0.06900
C922        C  0.62500158  0.98858180  0.57128504     0.14000
C923        C  0.63018519  0.01094585  0.54729129    -0.23700
H924        H  0.66646443  0.99888012  0.59100318     0.15200
H925        H  0.57535843  0.93948546  0.59926393     0.15300
C926        C  0.60917657  0.93273974  0.64686951    -0.23700
H927        H  0.63428980  0.03278354  0.55727265     0.05500
H928        H  0.61129597  0.01342806  0.53238939     0.08700
H929        H  0.64971644  0.00459291  0.53404187     0.08700
H930        H  0.61113622  0.94656921  0.66680227     0.08700
H931        H  0.62412140  0.91371712  0.64850002     0.08700
H932        H  0.58643755  0.92388061  0.64632601     0.05500
C933        C  0.69886203  0.90076317  0.70962259    -0.20300
C934        C  0.71032160  0.91256622  0.68348652    -0.06900
C935        C  0.73106676  0.89635197  0.66715239     0.14000
C936        C  0.73962176  0.86850875  0.67715724    -0.20400
C937        C  0.72767442  0.85605361  0.70299821    -0.06900
C938        C  0.70707216  0.87270169  0.71957724     0.14000
C939        C  0.69380470  0.86148519  0.74790798    -0.23700
H940        H  0.68285054  0.91337776  0.72196044     0.15200
H941        H  0.75537784  0.85614641  0.66425784     0.15300
C942        C  0.74427160  0.90847275  0.63918048    -0.23700
H943        H  0.67951502  0.87814285  0.75854208     0.05500
H944        H  0.71147070  0.85585089  0.76355038     0.08700
H945        H  0.67998571  0.84187827  0.74363531     0.08700
H946        H  0.75543269  0.92967016  0.64375057     0.08700
H947        H  0.72683098  0.91206208  0.62273077     0.08700
H948        H  0.76067383  0.89325887  0.62946058     0.05500
C949        C  0.73506610  0.28228001  0.90021986    -0.20300
C950        C  0.71373178  0.26653181  0.88452744    -0.06900
C951        C  0.68589454  0.26147200  0.89789842     0.14000
C952        C  0.68030971  0.27219977  0.92631108    -0.20400
C953        C  0.70162823  0.28791474  0.94182238    -0.06900
C954        C  0.72936199  0.29306360  0.92859688     0.14000
C955        C  0.75254756  0.31100761  0.94379396    -0.23700
H956        H  0.75631189  0.28642646  0.89010335     0.15200
H957        H  0.65888894  0.26883972  0.93635416     0.15300
C958        C  0.66135042  0.24621837  0.88195697    -0.23700
H959        H  0.77244681  0.31394740  0.92980967     0.05500
H960        H  0.75932126  0.29991224  0.96432104     0.08700
H961        H  0.74378235  0.33310265  0.94909423     0.08700
H962        H  0.66732626  0.22307445  0.87740708     0.08700
H963        H  0.65688698  0.25792315  0.86108251     0.08700
H964        H  0.64068717  0.24590411  0.89508819     0.05500
C965        C  0.68516159  0.04276188  0.69760509    -0.20300
C966        C  0.70609822  0.02334667  0.68605384    -0.06900
C967        C  0.73527188  0.03326465  0.68198362     0.14000
C968        C  0.74258368  0.06241667  0.68905823    -0.20400
C969        C  0.72152108  0.08232664  0.69991061    -0.06900
C970        C  0.69231343  0.07199279  0.70460296     0.14000
C971        C  0.66807528  0.09152130  0.71596003    -0.23700
H972        H  0.66274829  0.03509927  0.70043731     0.15200
H973        H  0.76498387  0.06979315  0.68556300     0.15300
C974        C  0.75850194  0.01370189  0.66878363    -0.23700
H975        H  0.64664898  0.07983243  0.71717008     0.05500
H976        H  0.66534490  0.11064817  0.70110085     0.08700
H977        H  0.67321138  0.09910471  0.73847865     0.08700
H978        H  0.75125834  0.00560243  0.64703882     0.08700
H979        H  0.76265994  0.99477594  0.68348181     0.08700
H980        H  0.77966196  0.02552333  0.66558558     0.05500
C981        C  0.99155195  0.36789972  0.60755154    -0.20300
C982        C  0.01617967  0.34949968  0.61068246    -0.06900
C983        C  0.04034896  0.35384373  0.59112860     0.14000
C984        C  0.04123910  0.37894411  0.57323892    -0.20400
C985        C  0.01654315  0.39688150  0.57004023    -0.06900
C986        C  0.99076045  0.39007579  0.58614521     0.14000
C987        C  0.96212694  0.40546617  0.58022111    -0.23700
H988        H  0.97259198  0.36512014  0.62174693     0.15200
H989        H  0.06069395  0.38339723  0.56005029     0.15300
C990        C  0.06431378  0.33153377  0.58637540    -0.23700
H991        H  0.94389903  0.39627638  0.59378696     0.05500
H992        H  0.95627805  0.40262855  0.55678903     0.08700
H993        H  0.96367366  0.42919470  0.58511913     0.08700
H994        H  0.05937771  0.31008574  0.59682519     0.08700
H995        H  0.08549385  0.34026143  0.59455886     0.08700
H996        H  0.06666177  0.32699483  0.56251933     0.05500
C997        C  0.91305118  0.25969854  0.67426777    -0.20300
C998        C  0.90510547  0.26820705  0.70302582    -0.06900
C999        C  0.92657929  0.28239939  0.72055350     0.14000
C1000       C  0.95429973  0.28889333  0.70834300    -0.20400
C1001       C  0.96139722  0.28170701  0.67924221    -0.06900
C1002       C  0.94082564  0.26614721  0.66224122     0.14000
C1003       C  0.94827028  0.25556288  0.63172378    -0.23700
H1004       H  0.89729666  0.24825403  0.66073455     0.15200
H1005       H  0.97037823  0.30053650  0.72136207     0.15300
C1006       C  0.92089813  0.29098715  0.75205236    -0.23700
H1007       H  0.93026110  0.24210391  0.62237802     0.05500
H1008       H  0.96830320  0.24178587  0.63238533     0.08700
H1009       H  0.95206152  0.27434418  0.61667069     0.08700
H1010       H  0.91446927  0.27132277  0.76508004     0.08700
H1011       H  0.90337215  0.30781109  0.75321568     0.08700
H1012       H  0.94070604  0.30059777  0.76240716     0.05500
C1013       C  0.00738438  0.59513845  0.60197135    -0.20300
C1014       C  0.02737996  0.59308651  0.62515455    -0.06900
C1015       C  0.04669549  0.56874861  0.62626092     0.14000
C1016       C  0.04695189  0.54858446  0.60300594    -0.20400
C1017       C  0.02693870  0.55074941  0.57989927    -0.06900
C1018       C  0.00631676  0.57387361  0.57985815     0.14000
C1019       C  0.98237589  0.57564402  0.55724547    -0.23700
H1020       H  0.99223920  0.61341744  0.60129298     0.15200
H1021       H  0.06226033  0.53042762  0.60325155     0.15300
C1022       C  0.06553345  0.56250568  0.65262845    -0.23700
H1023       H  0.96698787  0.59394559  0.56187860     0.05500
H1024       H  0.96949650  0.55489776  0.55730295     0.08700
H1025       H  0.99181357  0.57943466  0.53506858     0.08700
H1026       H  0.05187810  0.56306816  0.67293163     0.08700
H1027       H  0.08372220  0.57854831  0.65429979     0.08700
H1028       H  0.07571059  0.54042373  0.65125919     0.05500
C1029       C  0.92002080  0.67584836  0.68357936    -0.20300
C1030       C  0.91312408  0.67270996  0.71360222    -0.06900
C1031       C  0.93563302  0.66360927  0.73300999     0.14000
C1032       C  0.96364689  0.65696037  0.72165887    -0.20400
C1033       C  0.96994768  0.65912666  0.69156760    -0.06900
C1034       C  0.94805142  0.66955393  0.67239735     0.14000
C1035       C  0.95351714  0.67492387  0.64010426    -0.39100
H1036       H  0.90334410  0.68318751  0.66843725     0.15200
H1037       H  0.98060204  0.64921430  0.73628182     0.15300
C1038       C  0.93074788  0.66099929  0.76569034    -0.23700
H1039       H  0.94783212  0.69797420  0.63465087     0.05500
H1040       H  0.93948903  0.65997120  0.62702058     0.08700
H1041       H  0.97670337  0.67169651  0.63339944     0.08700
H1042       H  0.91461224  0.64330923  0.77055278     0.08700
H1043       H  0.92277203  0.68221456  0.77461269     0.08700
H1044       H  0.95128930  0.65536833  0.77734681     0.05500
C1045       C  0.33800480  0.70070900  0.90622876    -0.20300
C1046       C  0.31730505  0.68520423  0.88942123    -0.06900
C1047       C  0.30207892  0.66113780  0.90267272     0.14000
C1048       C  0.30937413  0.65243327  0.93131673    -0.20400
C1049       C  0.33089973  0.66731346  0.94723381    -0.06900
C1050       C  0.34493910  0.69206120  0.93486138     0.14000
C1051       C  0.36797916  0.70880017  0.95155790    -0.23700
H1052       H  0.34953379  0.71933039  0.89671968     0.15200
H1053       H  0.29865707  0.63351383  0.94121841     0.15300
C1054       C  0.27806862  0.64442894  0.88726021    -0.23700
H1055       H  0.37714836  0.72736056  0.93850220     0.05500
H1056       H  0.38632175  0.69393756  0.95731057     0.08700
H1057       H  0.35821755  0.71792279  0.97198377     0.08700
H1058       H  0.28717913  0.63262544  0.86796458     0.08700
H1059       H  0.26059659  0.65979609  0.88026247     0.08700
H1060       H  0.26766752  0.62769419  0.90180678     0.05500
C1061       C  0.12291153  0.65617002  0.72085790    -0.20300
C1062       C  0.13792782  0.67891862  0.70592346    -0.06900
C1063       C  0.12315459  0.69415960  0.68311360     0.14000
C1064       C  0.09447411  0.68567086  0.67563593    -0.20400
C1065       C  0.08020638  0.66254704  0.69018951    -0.06900
C1066       C  0.09442209  0.64773102  0.71313444     0.14000
C1067       C  0.07974195  0.62247388  0.72897705    -0.23700
H1068       H  0.13371521  0.64428705  0.73829762     0.15200
H1069       H  0.08332343  0.69660490  0.65778379     0.15300
C1070       C  0.13705996  0.71928035  0.66635000    -0.23700
H1071       H  0.09389895  0.61326034  0.74641966     0.05500
H1072       H  0.07475069  0.60463113  0.71320064     0.08700
H1073       H  0.05899323  0.63005299  0.73938421     0.08700
H1074       H  0.15645632  0.71143106  0.65375780     0.08700
H1075       H  0.14364750  0.73690357  0.68177837     0.08700
H1076       H  0.12168633  0.72906908  0.65030803     0.05500
C1077       C  0.40186888  0.00081646  0.59402111    -0.20300
C1078       C  0.40323547  0.98100019  0.61766632    -0.06900
C1079       C  0.42744256  0.96154496  0.61927445     0.14000
C1080       C  0.44797963  0.96090318  0.59618070    -0.20400
C1081       C  0.44667641  0.98085401  0.57271932    -0.06900
C1082       C  0.42368847  0.00165737  0.57210536     0.14000
C1083       C  0.42176048  0.02552722  0.54922690    -0.23700
H1084       H  0.38368344  0.01602973  0.59268727     0.15200
H1085       H  0.46595179  0.94538595  0.59705782     0.15300
C1086       C  0.43347306  0.94228395  0.64551241    -0.23700
H1087       H  0.42091945  0.04723545  0.56024290     0.05500
H1088       H  0.40145869  0.02251779  0.53625821     0.08700
H1089       H  0.44078064  0.02603538  0.53394208     0.08700
H1090       H  0.43112229  0.91884743  0.63927803     0.08700
H1091       H  0.41901372  0.94694447  0.66457175     0.08700
H1092       H  0.45628713  0.94614762  0.65303086     0.05500
C1093       C  0.29711931  0.88616115  0.68582934    -0.20300
C1094       C  0.31714950  0.86839108  0.70121765    -0.06900
C1095       C  0.34546780  0.88002305  0.70738954     0.14000
C1096       C  0.35290301  0.90827410  0.69742180    -0.20400
C1097       C  0.33305788  0.92540894  0.68166137    -0.06900
C1098       C  0.30475346  0.91443123  0.67597524     0.14000
C1099       C  0.28299263  0.93207194  0.65862753    -0.23700
H1100       H  0.27541080  0.87779002  0.68096979     0.15200
H1101       H  0.37463610  0.91704383  0.70158027     0.15300
C1102       C  0.36848826  0.86300963  0.72377230    -0.23700
H1103       H  0.26213456  0.91984567  0.65538149     0.05500
H1104       H  0.29238106  0.93742590  0.63667547     0.08700
H1105       H  0.27775806  0.95273797  0.67037142     0.08700
H1106       H  0.37395984  0.84258535  0.71168424     0.08700
H1107       H  0.36044040  0.85768003  0.74623874     0.08700
H1108       H  0.38918689  0.87572274  0.72614327     0.05500
C1109       C  0.21109349  0.19817923  0.59537242    -0.20300
C1110       C  0.22604365  0.17720691  0.61219244    -0.06900
C1111       C  0.23280331  0.14958911  0.59946344     0.14000
C1112       C  0.22400466  0.14367690  0.57064856    -0.20400
C1113       C  0.20886352  0.16451622  0.55404301    -0.06900
C1114       C  0.20254690  0.19224340  0.56641669     0.14000
C1115       C  0.18585147  0.21520089  0.54960773    -0.23700
H1116       H  0.20601914  0.21934081  0.60496059     0.15200
H1117       H  0.22850655  0.12237327  0.56107261     0.15300
C1118       C  0.24812960  0.12563445  0.61630183    -0.23700
H1119       H  0.18174468  0.23509522  0.56306800     0.05500
H1120       H  0.16429689  0.20619806  0.54276138     0.08700
H1121       H  0.19859733  0.22209110  0.52989831     0.08700
H1122       H  0.23584992  0.12070759  0.63690532     0.08700
H1123       H  0.27090343  0.13247093  0.62145979     0.08700
H1124       H  0.24961125  0.10496681  0.60348352     0.05500
C1125       C  0.11338223  0.25523792  0.67836191    -0.20300
C1126       C  0.12870315  0.27174777  0.69946114    -0.06900
C1127       C  0.11420519  0.29609367  0.71273970     0.14000
C1128       C  0.08572141  0.30359931  0.70368406    -0.20400
C1129       C  0.07118558  0.28740199  0.68213763    -0.06900
C1130       C  0.08498581  0.26277830  0.66957431     0.14000
C1131       C  0.06999664  0.24485313  0.64626365    -0.23700
H1132       H  0.12382759  0.23652364  0.66807970     0.15200
H1133       H  0.07481958  0.32251763  0.71312606     0.15300
C1134       C  0.12813985  0.31442835  0.73641221    -0.23700
H1135       H  0.08397049  0.22647245  0.63847169     0.05500
H1136       H  0.06491975  0.25899370  0.62710577     0.08700
H1137       H  0.04928546  0.23537718  0.65522068     0.08700
H1138       H  0.14791513  0.32584261  0.72760899     0.08700
H1139       H  0.13412812  0.30026591  0.75528081     0.08700
H1140       H  0.11299118  0.33159039  0.74480080     0.05500
C1141       C  0.30829783  0.08151539  0.67858461    -0.20300
C1142       C  0.31738130  0.09075163  0.70661769    -0.06900
C1143       C  0.33396364  0.07086569  0.72403568     0.14000
C1144       C  0.34195528  0.04345467  0.71236662    -0.20400
C1145       C  0.33396737  0.03523469  0.68398089    -0.06900
C1146       C  0.31637791  0.05409912  0.66713908     0.14000
C1147       C  0.30595593  0.04517522  0.63713768    -0.23700
H1148       H  0.29518417  0.09598603  0.66515851     0.15200
H1149       H  0.35513557  0.02849694  0.72522181     0.15300
C1150       C  0.34362190  0.07791232  0.75483004    -0.23700
H1151       H  0.29173803  0.06218393  0.62716969     0.05500
H1152       H  0.29308374  0.02447621  0.63884886     0.08700
H1153       H  0.32503875  0.04171421  0.62225214     0.08700
H1154       H  0.32418715  0.08285182  0.76882275     0.08700
H1155       H  0.35903190  0.09684874  0.75454358     0.08700
H1156       H  0.35529394  0.05922885  0.76513835     0.05500
C1157       C  0.39480156  0.38886645  0.01023784    -0.20300
C1158       C  0.39614654  0.36429378  0.99176163    -0.06900
C1159       C  0.42123272  0.36026503  0.97360309     0.14000
C1160       C  0.44330952  0.38180836  0.97323355    -0.20400
C1161       C  0.44230936  0.40591687  0.99232779    -0.06900
C1162       C  0.41796062  0.40905025  0.01164271     0.14000
C1163       C  0.41593430  0.43266538  0.03476808    -0.23700
H1164       H  0.37588137  0.39182685  0.02453194     0.15200
H1165       H  0.46201330  0.37938377  0.95857204     0.15300
C1166       C  0.42604098  0.33257377  0.95609991    -0.23700
H1167       H  0.41209837  0.42233757  0.05657742     0.05500
H1168       H  0.39725533  0.44740701  0.02984448     0.08700
H1169       H  0.43613470  0.44607015  0.03661972     0.08700
H1170       H  0.41041235  0.33112666  0.93770988     0.08700
H1171       H  0.42349250  0.31309185  0.97060818     0.08700
H1172       H  0.44845906  0.33186612  0.94633933     0.05500
C1173       C  0.29420498  0.30411005  0.89955426    -0.20300
C1174       C  0.30749262  0.27929243  0.88673884    -0.06900
C1175       C  0.32846487  0.26331677  0.90317081     0.14000
C1176       C  0.33627346  0.27334730  0.93115834    -0.20400
C1177       C  0.32387441  0.29879688  0.94301921    -0.06900
C1178       C  0.30227112  0.31409601  0.92739562     0.14000
C1179       C  0.28802810  0.34114369  0.93999617    -0.23700
H1180       H  0.27798862  0.31639067  0.88741400     0.15200
H1181       H  0.35288839  0.26183323  0.94354005     0.15300
C1182       C  0.34271762  0.23571403  0.89176400    -0.23700
H1183       H  0.27125567  0.35029934  0.92502266     0.05500
H1184       H  0.30486121  0.35837416  0.94377522     0.08700
H1185       H  0.27708325  0.33559018  0.96117741     0.08700
H1186       H  0.35681018  0.24083738  0.87241755     0.08700
H1187       H  0.32559821  0.21945195  0.88572131     0.08700
H1188       H  0.35697219  0.22536602  0.90848351     0.05500
C1189       C  0.00680271  0.60781925  0.40860058    -0.20300
C1190       C  0.02729384  0.60544833  0.38544690    -0.06900
C1191       C  0.04590491  0.58059632  0.38427867     0.14000
C1192       C  0.04376702  0.55919328  0.40644266    -0.20400
C1193       C  0.02306085  0.56149399  0.42927174    -0.06900
C1194       C  0.00421408  0.58599288  0.43029472     0.14000
C1195       C  0.98057542  0.58851263  0.45350282    -0.23700
H1196       H  0.99226717  0.62659376  0.40931733     0.15200
H1197       H  0.05782035  0.54005590  0.40561000     0.15300
C1198       C  0.06677312  0.57541341  0.35893271    -0.23700
H1199       H  0.96704182  0.60848578  0.45038663     0.05500
H1200       H  0.99051616  0.58974775  0.47559041     0.08700
H1201       H  0.96581564  0.56908747  0.45252082     0.08700
H1202       H  0.08468322  0.59190926  0.35888353     0.08700
H1203       H  0.05472466  0.57648877  0.33788610     0.08700
H1204       H  0.07724861  0.55348290  0.36031696     0.05500
C1205       C  0.73488854  0.67019475  0.10577811    -0.20300
C1206       C  0.71856680  0.69234842  0.11987462    -0.06900
C1207       C  0.69402607  0.70457708  0.10517290     0.14000
C1208       C  0.68643961  0.69390039  0.07732642    -0.20400
C1209       C  0.70254675  0.67148767  0.06388065    -0.06900
C1210       C  0.72704338  0.65952005  0.07813433     0.14000
C1211       C  0.74437846  0.63484518  0.06453006    -0.23700
H1212       H  0.75369210  0.66070979  0.11663083     0.15200
H1213       H  0.66743200  0.70261086  0.06616855     0.15300
C1214       C  0.67495567  0.72800931  0.11875293    -0.23700
H1215       H  0.76270737  0.62776143  0.07878177     0.05500
H1216       H  0.75382516  0.64208607  0.04315686     0.08700
H1217       H  0.72980113  0.61561166  0.06093310     0.08700
H1218       H  0.68801650  0.74829676  0.12226950     0.08700
H1219       H  0.66562990  0.72008220  0.13994752     0.08700
H1220       H  0.65627887  0.73391167  0.10441655     0.05500
C1221       C  0.92666831  0.69303487  0.31090560    -0.20300
C1222       C  0.91281621  0.67315194  0.29183037    -0.06900
C1223       C  0.92846538  0.64792945  0.28235094     0.14000
C1224       C  0.95693059  0.64298892  0.29296017    -0.20400
C1225       C  0.97023900  0.66268063  0.31236865    -0.06900
C1226       C  0.95510983  0.68811612  0.32122659     0.14000
C1227       C  0.96863587  0.70963248  0.34230019    -0.23700
H1228       H  0.91505787  0.71250241  0.31808968     0.15200
H1229       H  0.96875983  0.62340147  0.28648888     0.15300
C1230       C  0.91517821  0.62553525  0.26203169    -0.23700
H1231       H  0.95358177  0.72809212  0.34740110     0.05500
H1232       H  0.98907106  0.71897123  0.33259190     0.08700
H1233       H  0.97391184  0.69833058  0.36320500     0.08700
H1234       H  0.91073860  0.63571822  0.24038051     0.08700
H1235       H  0.89447370  0.61675496  0.27171281     0.08700
H1236       H  0.93014118  0.60671157  0.25816587     0.05500
C1237       C  0.64933353  0.99273540  0.40579563    -0.20300
C1238       C  0.64798357  0.97451442  0.38109911    -0.06900
C1239       C  0.62306309  0.95637925  0.37695124     0.14000
C1240       C  0.60069153  0.95616510  0.39832446    -0.20400
C1241       C  0.60213970  0.97435741  0.42309883    -0.06900
C1242       C  0.62653182  0.99334143  0.42656406     0.14000
C1243       C  0.62898221  0.01511099  0.45134340    -0.23700
H1244       H  0.66822294  0.00697305  0.40868826     0.15200
H1245       H  0.58172256  0.94202263  0.39556667     0.15300
C1246       C  0.61922517  0.93832679  0.34951066    -0.23700
H1247       H  0.63214698  0.03750373  0.44213907     0.05500
H1248       H  0.64819807  0.00955431  0.46507323     0.08700
H1249       H  0.60924162  0.01585460  0.46565816     0.08700
H1250       H  0.63604807  0.92088459  0.34817681     0.08700
H1251       H  0.62103177  0.95272012  0.32987070     0.08700
H1252       H  0.59740330  0.92737977  0.34906406     0.05500
C1253       C  0.74137405  0.90763749  0.34349943    -0.20300
C1254       C  0.72457505  0.92313451  0.32308620    -0.06900
C1255       C  0.71689557  0.90970919  0.29636306     0.14000
C1256       C  0.72583239  0.88082738  0.29084984    -0.20400
C1257       C  0.74207461  0.86485197  0.31150717    -0.06900
C1258       C  0.75031850  0.87865515  0.33811181     0.14000
C1259       C  0.76710992  0.86271614  0.36163033    -0.23700
H1260       H  0.74660991  0.91800084  0.36421637     0.15200
H1261       H  0.71959735  0.87046063  0.27042404     0.15300
C1262       C  0.69804033  0.92529513  0.27427003    -0.23700
H1263       H  0.76996789  0.87643314  0.38154005     0.05500
H1264       H  0.78934926  0.85696839  0.35340622     0.08700
H1265       H  0.75509932  0.84247641  0.36829061     0.08700
H1266       H  0.70940578  0.94541180  0.26630032     0.08700
H1267       H  0.67674469  0.93141516  0.28456712     0.08700
H1268       H  0.69336975  0.91126017  0.25494647     0.05500
C1269       C  0.58775282  0.15160772  0.19773021    -0.20300
C1270       C  0.57047404  0.17147850  0.18210155    -0.06900
C1271       C  0.58250342  0.19895534  0.17399005     0.14000
C1272       C  0.61156135  0.20579046  0.18161767    -0.20400
C1273       C  0.62940768  0.18573729  0.19685475    -0.06900
C1274       C  0.61691964  0.15822107  0.20523101     0.14000
C1275       C  0.63395206  0.13521633  0.22151494    -0.23700
H1276       H  0.57846469  0.13038548  0.20347738     0.15200
H1277       H  0.62048887  0.22689975  0.17503701     0.15300
C1278       C  0.56524753  0.22060281  0.15603190    -0.23700
H1279       H  0.62064970  0.11515037  0.22583614     0.05500
H1280       H  0.64083247  0.14403152  0.24307588     0.08700
H1281       H  0.65340808  0.12853333  0.20833217     0.08700
H1282       H  0.54555378  0.22783110  0.16850116     0.08700
H1283       H  0.55832436  0.21023360  0.13515514     0.08700
H1284       H  0.57840154  0.24046924  0.15049866     0.05500
C1285       C  0.71244391  0.26236611  0.09261726    -0.20300
C1286       C  0.72798867  0.28265072  0.10977238    -0.06900
C1287       C  0.73557100  0.31036133  0.09740490     0.14000
C1288       C  0.72699629  0.31699089  0.06861953    -0.20400
C1289       C  0.71122004  0.29681667  0.05168186    -0.06900
C1290       C  0.70404832  0.26904110  0.06375058     0.14000
C1291       C  0.68647961  0.24682235  0.04677188    -0.23700
H1292       H  0.70671645  0.24115247  0.10189992     0.15200
H1293       H  0.73207497  0.33839103  0.05937837     0.15300
C1294       C  0.75148393  0.33371373  0.11462269    -0.23700
H1295       H  0.68165309  0.22687673  0.06005517     0.05500
H1296       H  0.69892796  0.23980662  0.02698967     0.08700
H1297       H  0.66525336  0.25653858  0.04006239     0.08700
H1298       H  0.77403748  0.32634774  0.11980222     0.08700
H1299       H  0.73924668  0.33853378  0.13523407     0.08700
H1300       H  0.75359325  0.35456518  0.10207767     0.05500
C1301       C  0.74156826  0.07590574  0.30689498    -0.20300
C1302       C  0.72037319  0.08937500  0.28906757    -0.06900
C1303       C  0.69446637  0.07347143  0.28228828     0.14000
C1304       C  0.69031203  0.04515844  0.29389667    -0.20400
C1305       C  0.71123560  0.03216505  0.31206672    -0.06900
C1306       C  0.73728954  0.04759090  0.31850670     0.14000
C1307       C  0.76000678  0.03476524  0.33860530    -0.23700
H1308       H  0.76147929  0.08778963  0.31219440     0.15200
H1309       H  0.67022986  0.03322325  0.28932702     0.15300
C1310       C  0.67036564  0.08648218  0.26411220    -0.23700
H1311       H  0.77860852  0.05017035  0.34208218     0.05500
H1312       H  0.76899778  0.01429441  0.32899163     0.08700
H1313       H  0.74990113  0.02977675  0.36032879     0.08700
H1314       H  0.67856964  0.09084987  0.24152036     0.08700
H1315       H  0.66261921  0.10711212  0.27445501     0.08700
H1316       H  0.65120159  0.07145615  0.26233873     0.05500
C1317       C  0.20821765  0.58495068  0.22493420    -0.20300
C1318       C  0.22164673  0.60458631  0.20488186    -0.06900
C1319       C  0.22642383  0.59488750  0.17551885     0.14000
C1320       C  0.21703413  0.56665687  0.16721731    -0.20400
C1321       C  0.20335865  0.54747619  0.18720824    -0.06900
C1322       C  0.19911334  0.55664092  0.21652444     0.14000
C1323       C  0.18402354  0.53707554  0.23876115    -0.23700
H1324       H  0.20453690  0.59181522  0.24741795     0.15200
H1325       H  0.22027524  0.55941664  0.14476641     0.15300
C1326       C  0.24078520  0.61397647  0.15234322    -0.23700
H1327       H  0.18127607  0.54819527  0.26028022     0.05500
H1328       H  0.19714592  0.51697930  0.24244279     0.08700
H1329       H  0.16191290  0.53082655  0.23078349     0.08700
H1330       H  0.26364006  0.61933048  0.15873715     0.08700
H1331       H  0.22797555  0.63443252  0.14936517     0.08700
H1332       H  0.24195422  0.60283112  0.13070132     0.05500
C1333       C  0.29841576  0.67780786  0.09591044    -0.20300
C1334       C  0.31961489  0.69074070  0.11423255    -0.06900
C1335       C  0.34864892  0.69451091  0.10300938     0.14000
C1336       C  0.35565248  0.68406650  0.07475037    -0.20400
C1337       C  0.33457406  0.67037021  0.05714950    -0.06900
C1338       C  0.30547389  0.66761560  0.06769265     0.14000
C1339       C  0.28200207  0.65275932  0.04983905    -0.23700
H1340       H  0.27607729  0.67508354  0.10384481     0.15200
H1341       H  0.37790698  0.68624707  0.06636939     0.15300
C1342       C  0.37271368  0.70884000  0.12050150    -0.23700
H1343       H  0.26088737  0.65107714  0.06212319     0.05500
H1344       H  0.28903563  0.63019390  0.04398076     0.08700
H1345       H  0.27783189  0.66546030  0.02952835     0.08700
H1346       H  0.37653677  0.69625105  0.14099154     0.08700
H1347       H  0.36663283  0.73181354  0.12581671     0.08700
H1348       H  0.39382385  0.70963016  0.10812066     0.05500
C1349       C  0.12385358  0.67323721  0.28900740    -0.20300
C1350       C  0.13497543  0.69898987  0.30202813    -0.06900
C1351       C  0.11662920  0.71439286  0.32230570     0.14000
C1352       C  0.08911925  0.70250082  0.33024915    -0.20400
C1353       C  0.07910693  0.67615900  0.31818220    -0.06900
C1354       C  0.09619626  0.66180602  0.29673628     0.14000
C1355       C  0.08530109  0.63416627  0.28226081    -0.23700
H1356       H  0.13701932  0.66154374  0.27296963     0.15200
H1357       H  0.07547098  0.71353098  0.34639212     0.15300
C1358       C  0.12548990  0.74313162  0.33609208    -0.23700
H1359       H  0.10126937  0.62571385  0.26579882     0.05500
H1360       H  0.06435012  0.63868152  0.27086383     0.08700
H1361       H  0.08157079  0.61682051  0.29905166     0.08700
H1362       H  0.12980993  0.75977620  0.31872925     0.08700
H1363       H  0.14527722  0.74003054  0.34971068     0.08700
H1364       H  0.10798886  0.75199197  0.35067612     0.05500
C1365       C  0.42898722  0.97098515  0.37298752    -0.20300
C1366       C  0.40640086  0.99165515  0.37653872    -0.06900
C1367       C  0.40546329  0.00875621  0.40251618     0.14000
C1368       C  0.42752152  0.00522513  0.42355943    -0.20400
C1369       C  0.44970431  0.98418658  0.42013559    -0.06900
C1370       C  0.44995792  0.96630249  0.39476983     0.14000
C1371       C  0.47118984  0.94133431  0.39032885    -0.23700
H1372       H  0.42969052  0.95752597  0.35338756     0.15200
H1373       H  0.42724639  0.01868328  0.44316093     0.15300
C1374       C  0.38059797  0.02952534  0.40924711    -0.23700
H1375       H  0.45873110  0.92071553  0.38648087     0.05500
H1376       H  0.48540053  0.93740795  0.40950995     0.08700
H1377       H  0.48533948  0.94590260  0.37086666     0.08700
H1378       H  0.35924010  0.01795959  0.40702550     0.08700
H1379       H  0.38143937  0.04880219  0.39443746     0.08700
H1380       H  0.38181259  0.03808876  0.43201554     0.05500
C1381       C  0.32225014  0.91892449  0.33209338    -0.20300
C1382       C  0.33714608  0.93732932  0.31228546    -0.06900
C1383       C  0.34395012  0.92697642  0.28389511     0.14000
C1384       C  0.33660904  0.89801016  0.27636215    -0.20400
C1385       C  0.32260288  0.87887516  0.29647752    -0.06900
C1386       C  0.31461748  0.88997803  0.32465259     0.14000
C1387       C  0.29869911  0.87173034  0.34750472    -0.23700
H1388       H  0.31716014  0.92716849  0.35385669     0.15200
H1389       H  0.34240866  0.89017601  0.25464403     0.15300
C1390       C  0.36009378  0.94599786  0.26190408    -0.23700
H1391       H  0.29467989  0.88419862  0.36807501     0.05500
H1392       H  0.31199417  0.85222483  0.35329781     0.08700
H1393       H  0.27695666  0.86477961  0.33911211     0.08700
H1394       H  0.38143366  0.95318123  0.27109080     0.08700
H1395       H  0.34674126  0.96556711  0.25653872     0.08700
H1396       H  0.36458954  0.93409586  0.24110173     0.05500
C1397       C  0.18823811  0.19191759  0.42773273    -0.20300
C1398       C  0.20549906  0.17287145  0.44426916    -0.06900
C1399       C  0.23255231  0.16306868  0.43268778     0.14000
C1400       C  0.24143261  0.17209339  0.40447430    -0.20400
C1401       C  0.22381560  0.19049697  0.38712448    -0.06900
C1402       C  0.19693160  0.20103154  0.39944355     0.14000
C1403       C  0.17668975  0.22137511  0.38317797    -0.23700
H1404       H  0.16745535  0.19919470  0.43687539     0.15200
H1405       H  0.26202689  0.16397202  0.39569941     0.15300
C1406       C  0.25154241  0.14205592  0.44958847    -0.23700
H1407       H  0.15720791  0.22753558  0.39661563     0.05500
H1408       H  0.16846156  0.21033870  0.36318273     0.08700
H1409       H  0.18844137  0.24198564  0.37727098     0.08700
H1410       H  0.23899259  0.12167807  0.45460854     0.08700
H1411       H  0.25867018  0.15235405  0.47040167     0.08700
H1412       H  0.27154873  0.13586075  0.43697851     0.05500
C1413       C  0.44973690  0.17250397  0.20396506    -0.20300
C1414       C  0.46049764  0.18001645  0.17600461    -0.06900
C1415       C  0.44347090  0.19804918  0.15761648     0.14000
C1416       C  0.41546183  0.20695363  0.16708039    -0.20400
C1417       C  0.40392813  0.19832402  0.19454567    -0.06900
C1418       C  0.42175411  0.18148218  0.21357221     0.14000
C1419       C  0.41196636  0.17354722  0.24428528    -0.23700
H1420       H  0.46312418  0.15899366  0.21812706     0.15200
H1421       H  0.40224333  0.22028550  0.15260392     0.15300
C1422       C  0.45500947  0.20836606  0.12823075    -0.23700
H1423       H  0.42947582  0.16204800  0.25656295     0.05500
H1424       H  0.39273538  0.15865519  0.24360876     0.08700
H1425       H  0.40618263  0.19376250  0.25659063     0.08700
H1426       H  0.45867827  0.18941318  0.11344071     0.08700
H1427       H  0.47604611  0.22033875  0.13122997     0.08700
H1428       H  0.43939672  0.22342076  0.11728321     0.05500
C1429       C  0.23208285  0.39037716  0.18171455    -0.20300
C1430       C  0.21795921  0.37929326  0.20714984    -0.06900
C1431       C  0.19841411  0.39810080  0.22279485     0.14000
C1432       C  0.19340782  0.42667635  0.21229903    -0.20400
C1433       C  0.20686765  0.43701395  0.18654424    -0.06900
C1434       C  0.22657499  0.41880569  0.17115993     0.14000
C1435       C  0.24165138  0.42935478  0.14349535    -0.23700
H1436       H  0.24722949  0.37659922  0.16957841     0.15200
H1437       H  0.17793333  0.44078981  0.22365172     0.15300
C1438       C  0.18190926  0.38844470  0.25004119    -0.23700
H1439       H  0.25686605  0.41259748  0.13443770     0.05500
H1440       H  0.25454168  0.44950747  0.14822538     0.08700
H1441       H  0.22512464  0.43435291  0.12647363     0.08700
H1442       H  0.19760008  0.38283278  0.26766213     0.08700
H1443       H  0.16775075  0.36923926  0.24500609     0.08700
H1444       H  0.16738666  0.40600336  0.25870641     0.05500
C1445       C  0.33706297  0.28181903  0.10142989    -0.20300
C1446       C  0.30824204  0.28933915  0.10993775    -0.06900
C1447       C  0.28934629  0.30183770  0.08864489     0.14000
C1448       C  0.30029656  0.30765036  0.06031229    -0.20400
C1449       C  0.32940189  0.30132815  0.05255704    -0.06900
C1450       C  0.34781342  0.28753570  0.07308052     0.14000
C1451       C  0.37854901  0.27808893  0.06501208    -0.23700
H1452       H  0.35160922  0.27171501  0.11715462     0.15200
H1453       H  0.28625010  0.31791034  0.04420514     0.15300
C1454       C  0.25764701  0.30904677  0.09510077    -0.23700
H1455       H  0.38911831  0.26589219  0.08319236     0.05500
H1456       H  0.39255439  0.29741477  0.05995903     0.08700
H1457       H  0.37788308  0.26343069  0.04558768     0.08700
H1458       H  0.25622623  0.32659089  0.11191401     0.08700
H1459       H  0.24585761  0.28906008  0.10284347     0.08700
H1460       H  0.24615130  0.31717674  0.07529929     0.05500
C1461       C  0.34898546  0.05771944  0.28300507    -0.20300
C1462       C  0.33917979  0.04735806  0.31024133    -0.06900
C1463       C  0.31951633  0.06431517  0.32707438     0.14000
C1464       C  0.31073058  0.09189011  0.31663377    -0.20400
C1465       C  0.32116478  0.10313948  0.28963592    -0.06900
C1466       C  0.34031945  0.08528037  0.27231980     0.14000
C1467       C  0.35223847  0.09465910  0.24273440    -0.23700
H1468       H  0.36395838  0.04425852  0.27025904     0.15200
H1469       H  0.29586047  0.10483819  0.32997799     0.15300
C1470       C  0.30780072  0.05323400  0.35609511    -0.23700
H1471       H  0.36643047  0.07758911  0.23264128     0.05500
H1472       H  0.36587381  0.11468280  0.24509205     0.08700
H1473       H  0.33389137  0.09872601  0.22740281     0.08700
H1474       H  0.32617682  0.04983734  0.37153157     0.08700
H1475       H  0.29608703  0.03208357  0.35283011     0.08700
H1476       H  0.29221238  0.06897002  0.36629459     0.05500
C1477       C  0.02730504  0.41578306  0.39506866    -0.20300
C1478       C  0.00682514  0.41183876  0.41791037    -0.06900
C1479       C  0.98625481  0.38863471  0.41628012     0.14000
C1480       C  0.98850528  0.36840602  0.39320125    -0.20400
C1481       C  0.00950539  0.37189768  0.37058342    -0.06900
C1482       C  0.02794792  0.39703804  0.37077461     0.14000
C1483       C  0.04744713  0.40577148  0.34529614    -0.23700
H1484       H  0.04242871  0.43421221  0.39583155     0.15200
H1485       H  0.97388905  0.34958876  0.39302737     0.15300
C1486       C  0.96150075  0.38556330  0.43830122    -0.23700
H1487       H  0.04296009  0.42892511  0.33915472     0.05500
H1488       H  0.04338541  0.39254418  0.32542320     0.08700
H1489       H  0.07083888  0.40383898  0.35161046     0.08700
H1490       H  0.94837031  0.40604276  0.43863721     0.08700
H1491       H  0.97002529  0.38130421  0.46057460     0.08700
H1492       H  0.94658101  0.36711050  0.43267912     0.05500
C1493       C  0.91230808  0.30307383  0.28422040    -0.20300
C1494       C  0.90526940  0.27445128  0.29399348    -0.06900
C1495       C  0.92767282  0.25759532  0.30746212     0.14000
C1496       C  0.95529663  0.27050638  0.31246902    -0.20400
C1497       C  0.96129537  0.29964191  0.30440182    -0.06900
C1498       C  0.93989746  0.31578125  0.28914627     0.14000
C1499       C  0.94616989  0.34626736  0.27758248    -0.23700
H1500       H  0.89593398  0.31606943  0.27308892     0.15200
H1501       H  0.97202509  0.25815212  0.32384604     0.15300
C1502       C  0.92300695  0.22616485  0.31687030    -0.23700
H1503       H  0.92753290  0.35496399  0.26467800     0.05500
H1504       H  0.96582273  0.34578804  0.26300410     0.08700
H1505       H  0.95008896  0.36175091  0.29586278     0.08700
H1506       H  0.91630775  0.21273090  0.29773946     0.08700
H1507       H  0.90597643  0.22496059  0.33440716     0.08700
H1508       H  0.94334614  0.21635244  0.32582147     0.05500
C1509       C  0.07865921  0.27473875  0.31563728    -0.20300
C1510       C  0.07156100  0.30411066  0.31002416    -0.06900
C1511       C  0.09328494  0.32300350  0.29805178     0.14000
C1512       C  0.12179469  0.31245420  0.29343767    -0.20400
C1513       C  0.12936502  0.28313439  0.29950211    -0.06900
C1514       C  0.10712829  0.26389242  0.31047238     0.14000
C1515       C  0.11275311  0.23191265  0.31671288    -0.23700
H1516       H  0.06188468  0.26033003  0.32473150     0.15200
H1517       H  0.13820405  0.32748600  0.28469934     0.15300
C1518       C  0.08706663  0.35421436  0.28903243    -0.23700
H1519       H  0.09249572  0.22020667  0.32392911     0.05500
H1520       H  0.12891407  0.22980222  0.33461159     0.08700
H1521       H  0.12101120  0.22088823  0.29657426     0.08700
H1522       H  0.09959433  0.36956328  0.30313820     0.08700
H1523       H  0.06346672  0.35975199  0.29033859     0.08700
H1524       H  0.09400848  0.35755892  0.26583024     0.05500
C1525       C  0.41748009  0.76995584  0.82754256    -0.20300
C1526       C  0.41030700  0.77943627  0.79901247    -0.06900
C1527       C  0.43263299  0.79322889  0.78170388     0.14000
C1528       C  0.46075224  0.79748505  0.79359574    -0.20400
C1529       C  0.46727910  0.78868648  0.82226228    -0.06900
C1530       C  0.44548351  0.77445330  0.83932787     0.14000
C1531       C  0.45177105  0.76364020  0.86992027    -0.23700
H1532       H  0.40097311  0.75918071  0.84107081     0.15200
H1533       H  0.47765429  0.80845483  0.78069435     0.15300
C1534       C  0.42743412  0.80368681  0.75078029    -0.23700
H1535       H  0.43273383  0.75165027  0.87961777     0.05500
H1536       H  0.45671857  0.78243589  0.88447097     0.08700
H1537       H  0.47078835  0.74847620  0.86939030     0.08700
H1538       H  0.41052025  0.82112989  0.75083884     0.08700
H1539       H  0.42033985  0.78502440  0.73687174     0.08700
H1540       H  0.44760886  0.81316718  0.74061630     0.05500
C1541       C  0.58511782  0.78683484  0.79425890    -0.20300
C1542       C  0.57752718  0.77995008  0.82331835    -0.06900
C1543       C  0.59753336  0.76407221  0.84064297     0.14000
C1544       C  0.62543498  0.75732205  0.82912318    -0.20400
C1545       C  0.63408400  0.76591717  0.80053773    -0.06900
C1546       C  0.61295538  0.78004864  0.78253339     0.14000
C1547       C  0.61914958  0.78837240  0.75101862    -0.23700
H1548       H  0.56943775  0.79862611  0.78095668     0.15200
H1549       H  0.64078462  0.74575196  0.84295859     0.15300
C1550       C  0.58935522  0.75380428  0.87114009    -0.23700
H1551       H  0.59955477  0.79783697  0.74024208     0.05500
H1552       H  0.62566458  0.76861321  0.73834244     0.08700
H1553       H  0.63675618  0.80523958  0.74990411     0.08700
H1554       H  0.56921163  0.74004311  0.87023193     0.08700
H1555       H  0.58532995  0.77282820  0.88573980     0.08700
H1556       H  0.60703865  0.74044221  0.88108179     0.05500
C1557       C  0.54341199  0.87510563  0.88427263    -0.20300
C1558       C  0.52629113  0.85010233  0.89044861    -0.06900
C1559       C  0.50987642  0.84889744  0.91695738     0.14000
C1560       C  0.50955042  0.87336826  0.93552602    -0.20400
C1561       C  0.52662407  0.89838948  0.92937132    -0.06900
C1562       C  0.54423517  0.89903345  0.90360394     0.14000
C1563       C  0.56440151  0.92428356  0.89593025    -0.23700
H1564       H  0.55619993  0.87603690  0.86409514     0.15200
H1565       H  0.49638973  0.87264713  0.95547730     0.15300
C1566       C  0.49341212  0.82186774  0.92700849    -0.23700
H1567       H  0.58714920  0.91602065  0.89311679     0.05500
H1568       H  0.56495923  0.94152022  0.91301654     0.08700
H1569       H  0.55728934  0.93446070  0.87501360     0.08700
H1570       H  0.49739237  0.80259957  0.91277664     0.08700
H1571       H  0.46950989  0.82649264  0.92774091     0.08700
H1572       H  0.50071568  0.81569330  0.94937177     0.05500
C1573       C  0.20401564  0.38477613  0.77461314    -0.20300
C1574       C  0.21903800  0.36586296  0.79378607    -0.06900
C1575       C  0.22799776  0.37694724  0.82159291     0.14000
C1576       C  0.22080643  0.40586266  0.82941660    -0.20400
C1577       C  0.20532484  0.42410310  0.81038003    -0.06900
C1578       C  0.19702236  0.41362904  0.78260579     0.14000
C1579       C  0.17987928  0.43259521  0.76177953    -0.23700
H1580       H  0.19719035  0.37689283  0.75331084     0.15200
H1581       H  0.22681776  0.41424191  0.85080742     0.15300
C1582       C  0.24464135  0.35881015  0.84362685    -0.23700
H1583       H  0.17458913  0.42080932  0.74116595     0.05500
H1584       H  0.19288681  0.45243751  0.75590016     0.08700
H1585       H  0.15891566  0.43938779  0.77232477     0.08700
H1586       H  0.26600851  0.35184661  0.83408369     0.08700
H1587       H  0.23143761  0.33932762  0.85026843     0.08700
H1588       H  0.24949858  0.37135663  0.86390995     0.05500
C1589       C  0.20082935  0.54756708  0.78552144    -0.20300
C1590       C  0.21141183  0.53362934  0.81063574    -0.06900
C1591       C  0.23375655  0.54708534  0.82716168     0.14000
C1592       C  0.24374402  0.57511569  0.81911025    -0.20400
C1593       C  0.23192410  0.59017868  0.79497099    -0.06900
C1594       C  0.21081907  0.57561140  0.77727721     0.14000
C1595       C  0.19865153  0.58902958  0.74963940    -0.23700
H1596       H  0.18401851  0.53670330  0.77275507     0.15200
H1597       H  0.26024414  0.58562016  0.83254742     0.15300
C1598       C  0.24710573  0.53278801  0.85373923    -0.23700
H1599       H  0.18441913  0.57335123  0.73763128     0.05500
H1600       H  0.21691850  0.59550638  0.73464306     0.08700
H1601       H  0.18496405  0.60840075  0.75504951     0.08700
H1602       H  0.23792526  0.51068770  0.85843926     0.08700
H1603       H  0.24324753  0.54677644  0.87331594     0.08700
H1604       H  0.27112963  0.53041490  0.85021544     0.05500
C1605       C  0.13504090  0.50097754  0.89436514    -0.20300
C1606       C  0.13429302  0.48166496  0.87037645    -0.06900
C1607       C  0.11049565  0.46170117  0.86827503     0.14000
C1608       C  0.09162795  0.45783152  0.89242681    -0.20400
C1609       C  0.09400301  0.47529638  0.91775977    -0.06900
C1610       C  0.11422693  0.49910388  0.91721625     0.14000
C1611       C  0.11406681  0.52343360  0.93961133    -0.23700
H1612       H  0.15217987  0.51748499  0.89560659     0.15200
H1613       H  0.07511217  0.44068761  0.89138580     0.15300
C1614       C  0.10389267  0.44456437  0.84079199    -0.23700
H1615       H  0.11248398  0.54490503  0.92815462     0.05500
H1616       H  0.13475358  0.52306845  0.95230052     0.08700
H1617       H  0.09507739  0.52216216  0.95490831     0.08700
H1618       H  0.10680579  0.42073938  0.84498131     0.08700
H1619       H  0.11781280  0.45125409  0.82183844     0.08700
H1620       H  0.08078990  0.44851322  0.83433527     0.05500
C1621       C  0.61650794  0.14416055  0.78149692    -0.20300
C1622       C  0.62699484  0.17229123  0.78853337    -0.06900
C1623       C  0.60802614  0.19212018  0.80321157     0.14000
C1624       C  0.57974556  0.18271298  0.81173463    -0.20400
C1625       C  0.56997740  0.15404895  0.80601993    -0.06900
C1626       C  0.58835423  0.13479410  0.79002455     0.14000
C1627       C  0.57834950  0.10446517  0.78148232    -0.23700
H1628       H  0.63072749  0.12905269  0.76981204     0.15200
H1629       H  0.56532545  0.19762924  0.82341678     0.15300
C1630       C  0.61703482  0.22336604  0.80926112    -0.23700
H1631       H  0.59454181  0.09343672  0.76688439     0.05500
H1632       H  0.55719056  0.10572379  0.76965337     0.08700
H1633       H  0.57576273  0.09068163  0.80133545     0.08700
H1634       H  0.62372795  0.23433066  0.78844555     0.08700
H1635       H  0.63552281  0.22377652  0.82488094     0.08700
H1636       H  0.59880366  0.23620618  0.81916799     0.05500
C1637       C  0.41544012  0.19065083  0.82505572    -0.20300
C1638       C  0.40379236  0.18602713  0.79703642    -0.06900
C1639       C  0.42148568  0.17259792  0.77513588     0.14000
C1640       C  0.44969040  0.16273031  0.78240089    -0.20400
C1641       C  0.46046864  0.16577565  0.81093092    -0.06900
C1642       C  0.44349532  0.18068979  0.83230906     0.14000
C1643       C  0.45419496  0.18630646  0.86303130    -0.23700
H1644       H  0.40221813  0.20137015  0.84177056     0.15200
H1645       H  0.46293608  0.15146759  0.76608932     0.15300
C1646       C  0.41102783  0.16885372  0.74405358    -0.23700
H1647       H  0.45352614  0.21023475  0.86759060     0.05500
H1648       H  0.47705712  0.17894142  0.86650206     0.08700
H1649       H  0.43969133  0.17475939  0.87905430     0.08700
H1650       H  0.40433506  0.19043856  0.73498754     0.08700
H1651       H  0.39222385  0.15332981  0.74343514     0.08700
H1652       H  0.42852639  0.15985797  0.72955375     0.05500
C1653       C  0.48833664  0.09226789  0.89437132    -0.20300
C1654       C  0.50828336  0.08848721  0.87089574    -0.06900
C1655       C  0.52567173  0.06276883  0.87024358     0.14000
C1656       C  0.52569035  0.04407080  0.89468198    -0.20400
C1657       C  0.50625757  0.04825838  0.91838464    -0.06900
C1658       C  0.48602929  0.07171959  0.91722728     0.14000
C1659       C  0.46160437  0.07562148  0.93941406    -0.23700
H1660       H  0.47429064  0.11140618  0.89501886     0.15200
H1661       H  0.54045106  0.02544726  0.89484099     0.15300
C1662       C  0.54302097  0.05329543  0.84364410    -0.23700
H1663       H  0.44025093  0.07632550  0.92787797     0.05500
H1664       H  0.46472199  0.09659689  0.95138105     0.08700
H1665       H  0.46028509  0.05743927  0.95556624     0.08700
H1666       H  0.56687940  0.05527532  0.84801146     0.08700
H1667       H  0.53727027  0.06603105  0.82382202     0.08700
H1668       H  0.53781969  0.03002102  0.83854893     0.05500
C1669       C  0.85240136  0.54112245  0.79324843    -0.20300
C1670       C  0.83882100  0.52426713  0.81518206    -0.06900
C1671       C  0.81545057  0.53632564  0.83160562     0.14000
C1672       C  0.80639613  0.56526266  0.82591687    -0.20400
C1673       C  0.82043125  0.58278309  0.80438873    -0.06900
C1674       C  0.84365469  0.57010625  0.78750475     0.14000
C1675       C  0.85969003  0.58653821  0.76338552    -0.23700
H1676       H  0.87055511  0.53166691  0.78100778     0.15200
H1677       H  0.78867059  0.57442280  0.83895276     0.15300
C1678       C  0.80072086  0.51893228  0.85577743    -0.23700
H1679       H  0.87611542  0.57253940  0.75199407     0.05500
H1680       H  0.87180301  0.60548094  0.77269621     0.08700
H1681       H  0.84387449  0.59415452  0.74663479     0.08700
H1682       H  0.81710961  0.51280483  0.87258950     0.08700
H1683       H  0.79082482  0.49867356  0.84657481     0.08700
H1684       H  0.78303706  0.53165968  0.86677086     0.05500
C1685       C  0.84128989  0.36717268  0.78730130    -0.20300
C1686       C  0.81396044  0.35818082  0.79910662    -0.06900
C1687       C  0.79866770  0.37805621  0.81787741     0.14000
C1688       C  0.81137119  0.40547809  0.82453905    -0.20400
C1689       C  0.83894181  0.41370449  0.81336611    -0.06900
C1690       C  0.85389626  0.39447083  0.79419539     0.14000
C1691       C  0.88302642  0.40283314  0.78057786    -0.23700
H1692       H  0.85322852  0.35264226  0.77271368     0.15200
H1693       H  0.79998010  0.42046882  0.83912465     0.15300
C1694       C  0.76917197  0.37086936  0.83142975    -0.23700
H1695       H  0.89100272  0.38589273  0.76495554     0.05500
H1696       H  0.89976807  0.40528555  0.79788300     0.08700
H1697       H  0.88088817  0.42384452  0.76839946     0.08700
H1698       H  0.77096508  0.35126091  0.84580673     0.08700
H1699       H  0.75284855  0.36687331  0.81392785     0.08700
H1700       H  0.76073618  0.38912416  0.84521728     0.05500
C1701       C  0.91275126  0.48850486  0.89486933    -0.20300
C1702       C  0.91452743  0.46936120  0.87076037    -0.06900
C1703       C  0.93896830  0.45034087  0.86855842     0.14000
C1704       C  0.95817539  0.44786635  0.89235620    -0.20400
C1705       C  0.95513381  0.46560922  0.91744905    -0.06900
C1706       C  0.93353876  0.48795168  0.91733832     0.14000
C1707       C  0.93204915  0.51206913  0.93994443    -0.23700
H1708       H  0.89485673  0.50405413  0.89641581     0.15200
H1709       H  0.97552920  0.43168250  0.89128659     0.15300
C1710       C  0.94605971  0.43307346  0.84124784    -0.23700
H1711       H  0.93220973  0.53370192  0.92865479     0.05500
H1712       H  0.95102586  0.51210320  0.95495578     0.08700
H1713       H  0.91141751  0.51003418  0.95296717     0.08700
H1714       H  0.93202646  0.43915186  0.82249986     0.08700
H1715       H  0.94369792  0.40922386  0.84579159     0.08700
H1716       H  0.96906466  0.43769328  0.83433820     0.05500
C1717       C  0.84479571  0.41397487  0.20689668    -0.20300
C1718       C  0.83028658  0.42452607  0.18208954    -0.06900
C1719       C  0.80829024  0.40725833  0.16908445     0.14000
C1720       C  0.80174489  0.37939457  0.18080766    -0.20400
C1721       C  0.81688919  0.36802680  0.20520984    -0.06900
C1722       C  0.83855077  0.38603571  0.21867504     0.14000
C1723       C  0.85602185  0.37604570  0.24480969    -0.23700
H1724       H  0.86179586  0.42746125  0.21659411     0.15200
H1725       H  0.78494428  0.36624293  0.17039536     0.15300
C1726       C  0.79202453  0.41812855  0.14259205    -0.23700
H1727       H  0.87223040  0.39287089  0.25177528     0.05500
H1728       H  0.86843526  0.35585822  0.23923031     0.08700
H1729       H  0.84111339  0.37185178  0.26377469     0.08700
H1730       H  0.80770714  0.42209536  0.12420265     0.08700
H1731       H  0.78062956  0.43895221  0.14801853     0.08700
H1732       H  0.77533826  0.40200523  0.13513861     0.05500
C1733       C  0.81753506  0.55339189  0.15838299    -0.20300
C1734       C  0.83124590  0.53481843  0.17864435    -0.06900
C1735       C  0.83560639  0.54473684  0.20764679     0.14000
C1736       C  0.82634690  0.57305574  0.21560741    -0.20400
C1737       C  0.81244574  0.59166327  0.19544196    -0.06900
C1738       C  0.80788731  0.58159134  0.16639300     0.14000
C1739       C  0.79403279  0.60078371  0.14335844    -0.23700
H1740       H  0.81455150  0.54578394  0.13607115     0.15200
H1741       H  0.83000235  0.58075062  0.23778114     0.15300
C1742       C  0.85090861  0.52591412  0.22997865    -0.23700
H1743       H  0.79378496  0.58995233  0.12153854     0.05500
H1744       H  0.80658353  0.62162622  0.14109544     0.08700
H1745       H  0.77093933  0.60563286  0.14951166     0.08700
H1746       H  0.87305979  0.51986669  0.22168658     0.08700
H1747       H  0.83795764  0.50567628  0.23431105     0.08700
H1748       H  0.85358269  0.53754133  0.25119760     0.05500
C1749       C  0.90111619  0.49638610  0.09187505    -0.20300
C1750       C  0.90126512  0.47693417  0.11592188    -0.06900
C1751       C  0.92492600  0.45686281  0.11840264     0.14000
C1752       C  0.94568969  0.45485922  0.09555517    -0.20400
C1753       C  0.94525558  0.47407226  0.07147972    -0.06900
C1754       C  0.92332129  0.49595978  0.07030133     0.14000
C1755       C  0.92287492  0.51947543  0.04696165    -0.23700
H1756       H  0.88355981  0.51223289  0.08986142     0.15200
H1757       H  0.96313864  0.43880723  0.09705773     0.15300
C1758       C  0.93021019  0.43836261  0.14533716    -0.23700
H1759       H  0.92317963  0.54140480  0.05755627     0.05500
H1760       H  0.90254175  0.51736235  0.03387122     0.08700
H1761       H  0.94200756  0.51854307  0.03182006     0.08700
H1762       H  0.92704344  0.41480652  0.13995856     0.08700
H1763       H  0.91592201  0.44427536  0.16416961     0.08700
H1764       H  0.95312671  0.44169152  0.15279481     0.05500
C1765       C  0.59711436  0.81846880  0.21793219    -0.20300
C1766       C  0.58339959  0.80083118  0.19692326    -0.06900
C1767       C  0.59729952  0.77504677  0.18716532     0.14000
C1768       C  0.62491362  0.76762852  0.19838441    -0.20400
C1769       C  0.63922624  0.78546759  0.21913308    -0.06900
C1770       C  0.62479099  0.81120128  0.22926028     0.14000
C1771       C  0.63859918  0.83183729  0.25104369    -0.23700
H1772       H  0.58627610  0.83840778  0.22505129     0.15200
H1773       H  0.63555591  0.74788034  0.19051074     0.15300
C1774       C  0.58328624  0.75578382  0.16435298    -0.23700
H1775       H  0.62461184  0.85131167  0.25533557     0.05500
H1776       H  0.66005216  0.83988476  0.24243232     0.08700
H1777       H  0.64171275  0.82043005  0.27232898     0.08700
H1778       H  0.57986501  0.76857012  0.14389915     0.08700
H1779       H  0.56176624  0.74758455  0.17262626     0.08700
H1780       H  0.59717932  0.73652992  0.15890412     0.05500
C1781       C  0.42831832  0.77306784  0.17944895    -0.20300
C1782       C  0.41512651  0.78240265  0.20583751    -0.06900
C1783       C  0.43198113  0.79945916  0.22567834     0.14000
C1784       C  0.46088688  0.80759712  0.21795975    -0.20400
C1785       C  0.47329558  0.79931841  0.19100208    -0.06900
C1786       C  0.45704011  0.78144040  0.17174556     0.14000
C1787       C  0.47000882  0.77116140  0.14300783    -0.23700
H1788       H  0.41580926  0.75976321  0.16429176     0.15200
H1789       H  0.47363938  0.82117962  0.23266764     0.15300
C1790       C  0.42006403  0.80881721  0.25517954    -0.23700
H1791       H  0.45466016  0.75657836  0.13100764     0.05500
H1792       H  0.49047429  0.75872199  0.14715482     0.08700
H1793       H  0.47510796  0.79025824  0.12866576     0.08700
H1794       H  0.41243800  0.78926978  0.26774795     0.08700
H1795       H  0.40164189  0.82438657  0.25232070     0.08700
H1796       H  0.43701258  0.82014951  0.26843643     0.05500
C1797       C  0.55021880  0.91102377  0.10265986    -0.20300
C1798       C  0.53008452  0.90797565  0.07975370    -0.06900
C1799       C  0.51018166  0.88404641  0.08020504     0.14000
C1800       C  0.51190298  0.86323224  0.10277473    -0.20400
C1801       C  0.53131932  0.86670038  0.12637005    -0.06900
C1802       C  0.55017205  0.89161252  0.12663365     0.14000
C1803       C  0.56915207  0.89977583  0.15233629    -0.23700
H1804       H  0.56511562  0.92965761  0.10254556     0.15200
H1805       H  0.49733417  0.84436570  0.10220009     0.15300
C1806       C  0.48625218  0.88010039  0.05784478    -0.23700
H1807       H  0.56485041  0.92293165  0.15858444     0.05500
H1808       H  0.59265299  0.89763887  0.14607231     0.08700
H1809       H  0.56462551  0.88649703  0.17222676     0.08700
H1810       H  0.48998000  0.85946687  0.04545300     0.08700
H1811       H  0.48485002  0.89847091  0.04198659     0.08700
H1812       H  0.46466789  0.87864581  0.06929463     0.05500
C1813       C  0.86219159  0.75941249  0.43699029    -0.20300
C1814       C  0.84502213  0.78062313  0.45111680    -0.06900
C1815       C  0.82041815  0.79231045  0.43680079     0.14000
C1816       C  0.81363778  0.78270375  0.40840000    -0.20400
C1817       C  0.83100929  0.76172649  0.39370978    -0.06900
C1818       C  0.85562179  0.74974847  0.40848518     0.14000
C1819       C  0.87585726  0.72770007  0.39427696    -0.23700
H1820       H  0.88129918  0.75091043  0.44813939     0.15200
H1821       H  0.79473978  0.79195220  0.39751056     0.15300
C1822       C  0.80164196  0.81531849  0.45135637    -0.23700
H1823       H  0.89458097  0.72203712  0.40864738     0.05500
H1824       H  0.88508628  0.73683498  0.37352735     0.08700
H1825       H  0.86374048  0.70703440  0.38978741     0.08700
H1826       H  0.81512996  0.83504223  0.45621741     0.08700
H1827       H  0.79229595  0.80647473  0.47217353     0.08700
H1828       H  0.78318830  0.82218450  0.43716348     0.05500
C1829       C  0.82502504  0.79826533  0.57765891    -0.20300
C1830       C  0.84390039  0.78024168  0.56141642    -0.06900
C1831       C  0.85342829  0.75352362  0.57354173     0.14000
C1832       C  0.84408518  0.74558500  0.60195297    -0.20400
C1833       C  0.82556046  0.76385445  0.61887560    -0.06900
C1834       C  0.81562676  0.79058577  0.60611873     0.14000
C1835       C  0.79553902  0.81163446  0.62201455    -0.23700
H1836       H  0.81804023  0.81887388  0.56807552     0.15200
H1837       H  0.85189853  0.72512994  0.61113122     0.15300
C1838       C  0.87425010  0.73389546  0.55690718    -0.23700
H1839       H  0.79003890  0.83099511  0.60828175     0.05500
H1840       H  0.80635180  0.82003084  0.64207240     0.08700
H1841       H  0.77456312  0.80048835  0.62784561     0.08700
H1842       H  0.89482465  0.74606273  0.55171025     0.08700
H1843       H  0.86397137  0.72657083  0.53616676     0.08700
H1844       H  0.88005687  0.71405923  0.56979664     0.05500
C1845       C  0.93086957  0.85038652  0.48843751    -0.20300
C1846       C  0.90564172  0.85268602  0.50618603    -0.06900
C1847       C  0.90054882  0.87901663  0.52190724     0.14000
C1848       C  0.92162281  0.90158008  0.52061031    -0.20400
C1849       C  0.94687680  0.89915979  0.50290273    -0.06900
C1850       C  0.95109194  0.87349627  0.48593165     0.14000
C1851       C  0.97610389  0.86995065  0.46430338    -0.23700
H1852       H  0.93456072  0.83051305  0.47588681     0.15200
H1853       H  0.91822785  0.92148175  0.53318021     0.15300
C1854       C  0.87237903  0.88426038  0.53873426    -0.23700
H1855       H  0.96715395  0.86485171  0.44229652     0.05500
H1856       H  0.99034575  0.85156172  0.47135398     0.08700
H1857       H  0.98981880  0.88993300  0.46182521     0.08700
H1858       H  0.87074662  0.86954335  0.55804546     0.08700
H1859       H  0.85330637  0.88054614  0.52418214     0.08700
H1860       H  0.87107802  0.90713353  0.54703805     0.05500
C1861       C  0.85206800  0.17540368  0.56787533    -0.20300
C1862       C  0.83161328  0.15907945  0.55186249    -0.06900
C1863       C  0.80432488  0.15175590  0.56492951     0.14000
C1864       C  0.79809911  0.16109807  0.59371328    -0.20400
C1865       C  0.81849235  0.17761769  0.60984808    -0.06900
C1866       C  0.84594400  0.18486019  0.59660666     0.14000
C1867       C  0.86950140  0.20144002  0.61281888    -0.23700
H1868       H  0.87319576  0.18041010  0.55787942     0.15200
H1869       H  0.77716021  0.15537996  0.60370847     0.15300
C1870       C  0.78221047  0.13316698  0.54896249    -0.23700
H1871       H  0.89012755  0.20318356  0.59972944     0.05500
H1872       H  0.87470579  0.18993224  0.63363151     0.08700
H1873       H  0.86211128  0.22413263  0.61755319     0.08700
H1874       H  0.79218132  0.11177586  0.54294521     0.08700
H1875       H  0.77502859  0.14460208  0.52875671     0.08700
H1876       H  0.76241813  0.12871412  0.56270076     0.05500
C1877       C  0.79781767  0.14882681  0.39620780    -0.20300
C1878       C  0.80901688  0.17532459  0.38453776    -0.06900
C1879       C  0.82728321  0.19302306  0.40243863     0.14000
C1880       C  0.83459151  0.18321818  0.43075019    -0.20400
C1881       C  0.82437702  0.15621358  0.44160484    -0.06900
C1882       C  0.80538988  0.13903322  0.42437660     0.14000
C1883       C  0.79309304  0.11037516  0.43575061    -0.23700
H1884       H  0.78358439  0.13523336  0.38294364     0.15200
H1885       H  0.84914905  0.19626972  0.44421627     0.15300
C1886       C  0.83893920  0.22237664  0.39224794    -0.23700
H1887       H  0.77795495  0.10004490  0.41979032     0.05500
H1888       H  0.78070046  0.11426020  0.45647378     0.08700
H1889       H  0.81114928  0.09470282  0.44000496     0.08700
H1890       H  0.82045701  0.23669255  0.38563796     0.08700
H1891       H  0.85434287  0.21941406  0.37349338     0.08700
H1892       H  0.85116693  0.23384835  0.40984778     0.05500
C1893       C  0.91791195  0.04628429  0.50996194    -0.20300
C1894       C  0.94154353  0.05058215  0.49035334    -0.06900
C1895       C  0.94103832  0.07489875  0.47096290     0.14000
C1896       C  0.91830412  0.09543068  0.47348768    -0.20400
C1897       C  0.89488784  0.09129319  0.49338087    -0.06900
C1898       C  0.89404179  0.06557990  0.51085425     0.14000
C1899       C  0.86740057  0.05725295  0.52902480    -0.23700
H1900       H  0.91788972  0.02726151  0.52430532     0.15200
H1901       H  0.91862621  0.11464229  0.45939125     0.15300
C1902       C  0.96352326  0.07952845  0.44689125    -0.23700
H1903       H  0.86949157  0.03487669  0.53850105     0.05500
H1904       H  0.84758084  0.05738491  0.51501379     0.08700
H1905       H  0.86428180  0.07255549  0.54760767     0.08700
H1906       H  0.97941561  0.06128034  0.44503511     0.08700
H1907       H  0.95222356  0.08123856  0.42546581     0.08700
H1908       H  0.97579909  0.10022205  0.45088249     0.05500
C1909       C  0.22368081  0.81179762  0.57533565    -0.20300
C1910       C  0.20874582  0.79219625  0.55715243    -0.06900
C1911       C  0.20319190  0.76333106  0.56675157     0.14000
C1912       C  0.21214210  0.75489249  0.59490380    -0.20400
C1913       C  0.22643694  0.77471736  0.61384224    -0.06900
C1914       C  0.23275019  0.80359153  0.60348274     0.14000
C1915       C  0.24828093  0.82640343  0.62173303    -0.23700
H1916       H  0.22769552  0.83398705  0.56755095     0.15200
H1917       H  0.20736135  0.73274339  0.60228163     0.15300
C1918       C  0.18694981  0.74181245  0.54771774    -0.23700
H1919       H  0.25089348  0.84757403  0.60982423     0.05500
H1920       H  0.27063184  0.81868837  0.62732406     0.08700
H1921       H  0.23544356  0.83093429  0.64203960     0.08700
H1922       H  0.19944867  0.73810276  0.52704278     0.08700
H1923       H  0.16493059  0.75061617  0.54240294     0.08700
H1924       H  0.18390871  0.72026648  0.55881663     0.05500
C1925       C  0.20550308  0.77514474  0.43545167    -0.20300
C1926       C  0.21336433  0.80211772  0.44782556    -0.06900
C1927       C  0.23176145  0.82157077  0.43202360     0.14000
C1928       C  0.24056282  0.81427529  0.40337959    -0.20400
C1929       C  0.23143984  0.78791569  0.39015160    -0.06900
C1930       C  0.21439498  0.76765045  0.40685483     0.14000
C1931       C  0.20607412  0.73782858  0.39519963    -0.23700
H1932       H  0.19178470  0.76015059  0.44806696     0.15200
H1933       H  0.25415710  0.82959522  0.39104086     0.15300
C1934       C  0.24233023  0.84984528  0.44550123    -0.23700
H1935       H  0.19464040  0.72427057  0.41210336     0.05500
H1936       H  0.22611298  0.72585741  0.38815319     0.08700
H1937       H  0.19096432  0.74012158  0.37643086     0.08700
H1938       H  0.25444525  0.84499452  0.46597824     0.08700
H1939       H  0.22341050  0.86423324  0.45072819     0.08700
H1940       H  0.25731046  0.86208070  0.43044199     0.05500
C1941       C  0.12030138  0.90607715  0.52434669    -0.20300
C1942       C  0.09679924  0.90338189  0.50485864    -0.06900
C1943       C  0.09552607  0.87888847  0.48581446     0.14000
C1944       C  0.11751475  0.85755625  0.48724061    -0.20400
C1945       C  0.14141043  0.86057874  0.50623371    -0.06900
C1946       C  0.14306949  0.88548272  0.52473765     0.14000
C1947       C  0.16944456  0.89159242  0.54361284    -0.23700
H1948       H  0.12120781  0.92496781  0.53875417     0.15200
H1949       H  0.11635976  0.83866954  0.47283198     0.15300
C1950       C  0.07194815  0.87486817  0.46310218    -0.23700
H1951       H  0.16819935  0.91362006  0.55395542     0.05500
H1952       H  0.18976142  0.89095228  0.52998564     0.08700
H1953       H  0.17093802  0.87536420  0.56164552     0.08700
H1954       H  0.05653212  0.89353477  0.46185915     0.08700
H1955       H  0.05915347  0.85464210  0.46810716     0.08700
H1956       H  0.08230483  0.87257339  0.44107135     0.05500
loop_ 
_geom_bond_atom_site_label_1 
_geom_bond_atom_site_label_2 
_geom_bond_distance 
_geom_bond_site_symmetry_2 
_ccdc_geom_bond_type 
C1            C2   1.402       .  A
C1            C6   1.402       .  A
C1         C1926   1.475       .  S
C2            C3   1.403       .  A
C2            H7   1.084       .  S
C3            C4   1.399       .  A
C3         C1945   1.482       .  S
C4            C5   1.400       .  A
C4            H8   1.083       .  S
C5            C6   1.401       .  A
C5         C1910   1.472       .  S
C6            H9   1.084       .  S
C10          C11   1.402       .  A
C10          C15   1.407       .  A
C10        C1862   1.483       .  S
C11          C12   1.402       .  A
C11          H16   1.083       .  S
C12          C13   1.402       .  A
C12        C1897   1.485       .  S
C13          C14   1.402       .  A
C13          H17   1.084       .  S
C14          C15   1.406       .  A
C14        C1881   1.480       .  S
C15          H18   1.083       .  S
C19          C20   1.404       .  A
C19          C24   1.401       .  A
C19        C1814   1.477       .  S
C20          C21   1.405       .  A
C20          H25   1.084       .  S
C21          C22   1.402       .  A
C21        C1830   1.479       .  S
C22          C23   1.402       .  A
C22          H26   1.083       .  S
C23          C24   1.403       .  A
C23        C1846   1.485       .  S
C24          H27   1.084       .  S
C28          C29   1.401       .  A
C28          C33   1.404       .  A
C28        C1785   1.480       .  S
C29          C30   1.405       .  A
C29          H34   1.084       .  S
C30          C31   1.406       .  A
C30        C1801   1.492       .  S
C31          C32   1.403       .  A
C31          H35   1.084       .  S
C32          C33   1.405       .  A
C32        C1766   1.479       .  S
C33          H36   1.084       .  S
C37          C38   1.406       .  A
C37          C42   1.406       .  A
C37        C1734   1.486       .  S
C38          C39   1.408       .  A
C38          H43   1.084       .  S
C39          C40   1.407       .  A
C39        C1750   1.496       .  S
C40          C41   1.402       .  A
C40          H44   1.084       .  S
C41          C42   1.403       .  A
C41        C1718   1.481       .  S
C42          H45   1.083       .  S
C46          C47   1.406       .  A
C46          C51   1.407       .  A
C46        C1689   1.487       .  S
C47          C48   1.408       .  A
C47          H52   1.084       .  S
C48          C49   1.404       .  A
C48        C1702   1.493       .  S
C49          C50   1.400       .  A
C49          H53   1.084       .  S
C50          C51   1.405       .  A
C50        C1670   1.480       .  S
C51          H54   1.084       .  S
C55          C56   1.400       .  A
C55          C60   1.403       .  A
C55        C1641   1.477       .  S
C56          C57   1.402       .  A
C56          H61   1.084       .  S
C57          C58   1.408       .  A
C57        C1654   1.493       .  S
C58          C59   1.406       .  A
C58          H62   1.083       .  S
C59          C60   1.405       .  A
C59        C1625   1.485       .  S
C60          H63   1.084       .  S
C64          C65   1.400       .  A
C64          C69   1.399       .  A
C64        C1577   1.474       .  S
C65          C66   1.400       .  A
C65          H70   1.084       .  S
C66          C67   1.404       .  A
C66        C1590   1.472       .  S
C67          C68   1.405       .  A
C67          H71   1.084       .  S
C68          C69   1.405       .  A
C68        C1606   1.490       .  S
C69          H72   1.084       .  S
C73          C74   1.401       .  A
C73          C78   1.407       .  A
C73        C1529   1.483       .  S
C74          C75   1.402       .  A
C74          H79   1.084       .  S
C75          C76   1.403       .  A
C75        C1558   1.484       .  S
C76          C77   1.405       .  A
C76          H80   1.084       .  S
C77          C78   1.408       .  A
C77        C1542   1.486       .  S
C78          H81   1.084       .  S
C82          C83   1.406       .  A
C82          C87   1.404       .  A
C82        C1510   1.484       .  S
C83          C84   1.406   1_455  A
C83          H88   1.084       .  S
C84          C85   1.402       .  A
C84        C1497   1.482       .  S
C85          C86   1.402   1_655  A
C85          H89   1.083       .  S
C86          C87   1.405       .  A
C86        C1481   1.489       .  S
C87          H90   1.084       .  S
O91         Mg93   2.146       .  S
O91         Mg99   2.151       .  S
O91         C126   1.237       .  S
C92         H131   1.081       .  S
C92         O105   1.237       .  S
C92         O129   1.271       .  A
Mg93        O122   2.154       .  S
Mg93        O137   2.334       .  S
Mg93        O133   2.289       .  S
Mg93        O104   2.299       .  S
O94        Mg136   2.150       .  S
O94        Mg119   2.135       .  S
O94         C115   1.236       .  S
O95         C126   1.271       .  A
O95        Mg119   2.300       .  S
C96        C1513   1.497       .  S
C96          O98   1.272       .  A
C96         O110   1.277       .  A
O97         C125   1.270       .  A
O97         Mg99   2.297       .  S
O98        Mg130   2.275       .  S
Mg99        O105   2.131       .  S
Mg99        O113   2.242       .  S
Mg99        O101   2.314       .  S
C100       C1430   1.500       .  S
C100        O138   1.272       .  A
C100        O106   1.277       .  A
O101        C108   1.275       .  A
H102        C115   1.081       .  S
C103        H128   1.081       .  S
C103        O117   1.237       .  S
C103        O118   1.270       .  A
O104        C127   1.271       .  A
O105       Mg119   2.146       .  S
O106       Mg136   2.314       .  S
C107       C1446   1.491       .  S
C107        O120   1.271       .  A
C107        O112   1.275       .  A
C108       C1417   1.490       .  S
C108        O135   1.272       .  A
Mg109       O116   2.137       .  S
Mg109       O117   2.147       .  S
Mg109       O110   2.305       .  S
Mg109       O111   2.296       .  S
Mg109       O138   2.266       .  S
O111        C115   1.270       .  A
O112       Mg119   2.293       .  S
O113        C132   1.269       .  A
O114        C134   1.273       .  A
O114       Mg130   2.295       .  S
O116       Mg130   2.149       .  S
O116        C127   1.237       .  S
O117       Mg136   2.131       .  S
O118       Mg130   2.295       .  S
Mg119       O135   2.267       .  S
O120       Mg136   2.257       .  S
H121        C126   1.081       .  S
O122       Mg130   2.141       .  S
O122        C125   1.236       .  S
H123        C125   1.081       .  S
H124        C127   1.081       .  S
O129       Mg136   2.299       .  S
C132       C1465   1.498       .  S
C132        O137   1.281       .  A
O133        C134   1.277       .  A
C134       C1401   1.501       .  S
C139        C140   1.402   1_545  A
C139        C144   1.403       .  A
C139       C1462   1.475       .  S
C140        C141   1.402       .  A
C140        H145   1.084       .  S
C141        C142   1.401       .  A
C141       C1382   1.480       .  S
C142        C143   1.405       .  A
C142        H146   1.084       .  S
C143        C144   1.404   1_565  A
C143       C1366   1.490       .  S
C144        H147   1.081       .  S
O148       Mg150   2.139       .  S
O148       Mg156   2.149       .  S
O148        C183   1.237       .  S
C149        H188   1.081       .  S
C149        O162   1.237       .  S
C149        O186   1.271       .  A
Mg150       O179   2.145       .  S
Mg150       O194   2.315       .  S
Mg150       O190   2.276       .  S
Mg150       O161   2.299       .  S
O151       Mg193   2.150       .  S
O151       Mg176   2.139       .  S
O151        C172   1.237       .  S
O152        C183   1.271       .  A
O152       Mg176   2.297       .  S
C153       C1929   1.486       .  S
C153        O155   1.271       .  A
C153        O167   1.275       .  A
O154        C182   1.270       .  A
O154       Mg156   2.296       .  S
O155       Mg187   2.256       .  S
Mg156       O162   2.148       .  S
Mg156       O170   2.274       .  S
Mg156       O158   2.322       .  S
C157       C1350   1.500       .  S
C157        O195   1.271       .  A
C157        O163   1.279       .  A
O158        C165   1.276       .  A
H159        C172   1.081       .  S
C160        H185   1.081       .  S
C160        O174   1.238       .  S
C160        O175   1.272       .  A
O161        C184   1.271       .  A
O162       Mg176   2.148       .  S
O163       Mg193   2.325       .  S
C164       C1318   1.502       .  S
C164        O177   1.276       .  A
C164        O169   1.276       .  A
C165       C1334   1.499       .  S
C165        O192   1.274       .  A
Mg166       O173   2.136       .  S
Mg166       O174   2.151       .  S
Mg166       O167   2.308       .  S
Mg166       O168   2.298       .  S
Mg166       O195   2.259       .  S
O168        C172   1.271       .  A
O169       Mg176   2.317       .  S
O170        C189   1.275       .  A
O171        C191   1.273       .  A
O171       Mg187   2.301       .  S
O173       Mg187   2.146       .  S
O173        C184   1.237       .  S
O174       Mg193   2.145       .  S
O175       Mg187   2.302       .  S
Mg176       O192   2.260       .  S
O177       Mg193   2.284       .  S
H178        C183   1.081       .  S
O179       Mg187   2.128       .  S
O179        C182   1.237       .  S
H180        C182   1.081       .  S
H181        C184   1.081       .  S
O186       Mg193   2.301       .  S
C189       C1782   1.491       .  S
C189        O194   1.276       .  A
O190        C191   1.275       .  A
C191       C1385   1.498       .  S
O196       Mg198   2.128       .  S
O196       Mg204   2.145       .  S
O196        C231   1.237       .  S
C197        H236   1.081       .  S
C197        O210   1.237       .  S
C197        O234   1.270       .  A
Mg198       O227   2.150       .  S
Mg198       O242   2.309       .  S
Mg198       O238   2.240       .  S
Mg198       O209   2.299       .  S
O199       Mg241   2.150       .  S
O199       Mg224   2.148       .  S
O199        C220   1.238       .  S
O200        C231   1.270       .  A
O200       Mg224   2.296       .  S
C201       C1273   1.503       .  S
C201        O203   1.276       .  A
C201        O215   1.278       .  A
O202        C230   1.271       .  A
O202       Mg204   2.297       .  S
O203       Mg235   2.275       .  S
Mg204       O210   2.137       .  S
Mg204       O218   2.276       .  S
Mg204       O206   2.291       .  S
C205       C1302   1.493       .  S
C205        O243   1.274       .  A
C205        O211   1.275       .  A
O206        C213   1.275       .  A
H207        C220   1.081       .  S
C208        H233   1.081       .  S
C208        O222   1.237       .  S
C208        O223   1.272       .  A
O209        C232   1.271       .  A
O210       Mg224   2.155       .  S
O211       Mg241   2.302       .  S
C212       C1878   1.494       .  S
C212        O225   1.273       .  A
C212        O217   1.278       .  A
C213       C1494   1.499       .  S
C213        O240   1.275       .  A
Mg214       O221   2.145       .  S
Mg214       O222   2.148       .  S
Mg214       O215   2.326       .  S
Mg214       O216   2.304       .  S
Mg214       O243   2.285       .  S
O216        C220   1.272       .  A
O217       Mg224   2.330       .  S
O218        C237   1.272       .  A
O219        C239   1.280       .  A
O219       Mg235   2.338       .  S
O221       Mg235   2.151       .  S
O221        C232   1.237       .  S
O222       Mg241   2.146       .  S
O223       Mg235   2.304       .  S
Mg224       O240   2.291       .  S
O225       Mg241   2.263       .  S
H226        C231   1.081       .  S
O227       Mg235   2.143       .  S
O227        C230   1.238       .  S
H228        C230   1.081       .  S
H229        C232   1.081       .  S
O234       Mg241   2.294       .  S
C237       C1721   1.501       .  S
C237        O242   1.276       .  A
O238        C239   1.269       .  A
C239       C1286   1.488       .  S
C244        C245   1.405   1_545  A
C244        C249   1.403       .  A
C244       C1305   1.480       .  S
C245        C246   1.405       .  A
C245        H250   1.083       .  S
C246        C247   1.399       .  A
C246       C1254   1.475       .  S
C247        C248   1.398       .  A
C247        H251   1.084       .  S
C248        C249   1.402   1_565  A
C248       C1238   1.479       .  S
C249        H252   1.084       .  S
O253       Mg255   2.129       .  S
O253       Mg261   2.147       .  S
O253        C288   1.236       .  S
C254        H293   1.081       .  S
C254        O267   1.238       .  S
C254        O291   1.271       .  A
Mg255       O284   2.156       .  S
Mg255       O299   2.305       .  S
Mg255       O295   2.254       .  S
Mg255       O266   2.297       .  S
O256       Mg298   2.145       .  S
O256       Mg281   2.132       .  S
O256        C277   1.236       .  S
O257        C288   1.270       .  A
O257       Mg281   2.297       .  S
C258       C1737   1.487       .  S
C258        O260   1.273       .  A
C258        O272   1.278       .  A
O259        C287   1.271       .  A
O259       Mg261   2.301       .  S
O260       Mg292   2.274       .  S
Mg261       O267   2.142       .  S
Mg261       O275   2.282       .  S
Mg261       O263   2.306       .  S
C262       C1222   1.489       .  S
C262        O300   1.273       .  A
C262        O268   1.276       .  A
O263        C270   1.277       .  A
H264        C277   1.081       .  S
C265        H290   1.081       .  S
C265        O279   1.236       .  S
C265        O280   1.270       .  A
O266        C289   1.270       .  A
O267       Mg281   2.154       .  S
O268       Mg298   2.297       .  S
C269       C1817   1.493       .  S
C269        O282   1.271       .  A
C269        O274   1.276       .  A
C270       C1257   1.484       .  S
C270        O297   1.271       .  A
Mg271       O278   2.141       .  S
Mg271       O279   2.153       .  S
Mg271       O272   2.319       .  S
Mg271       O273   2.297       .  S
Mg271       O300   2.275       .  S
O273        C277   1.270       .  A
O274       Mg281   2.308       .  S
O275        C294   1.273       .  A
O276        C296   1.275       .  A
O276       Mg292   2.296       .  S
O278       Mg292   2.151       .  S
O278        C289   1.237       .  S
O279       Mg298   2.134       .  S
O280       Mg292   2.294       .  S
Mg281       O297   2.256       .  S
O282       Mg298   2.268       .  S
H283        C288   1.081       .  S
O284       Mg292   2.148       .  S
O284        C287   1.237       .  S
H285        C287   1.081       .  S
H286        C289   1.081       .  S
O291       Mg298   2.299       .  S
C294       C1769   1.495       .  S
C294        O299   1.276       .  A
O295        C296   1.270       .  A
C296       C1206   1.489       .  S
C301        C302   1.402       .  A
C301        C306   1.404       .  A
C301       C1353   1.477       .  S
C302        C303   1.402   1_455  A
C302        H307   1.084       .  S
C303        C304   1.401   1_655  A
C303       C1225   1.476       .  S
C304        C305   1.404       .  A
C304        H308   1.084   1_455  S
C305        C306   1.405       .  A
C305       C1190   1.489       .  S
C306        H309   1.082       .  S
C310        C311   1.403   1_554  A
C310        C315   1.402       .  A
C310       C1449   1.477       .  S
C311        C312   1.400       .  A
C311        H316   1.084       .  S
C312        C313   1.399       .  A
C312       C1177   1.470       .  S
C313        C314   1.400       .  A
C313        H317   1.082       .  S
C314        C315   1.403   1_556  A
C314       C1158   1.484       .  S
C315        H318   1.083       .  S
O319       Mg321   2.146       .  S
O319       Mg327   2.148       .  S
O319        C354   1.238       .  S
C320        H359   1.081       .  S
C320        O333   1.236       .  S
C320        O357   1.270       .  A
Mg321       O350   2.149       .  S
Mg321       O365   2.328       .  S
Mg321       O361   2.269       .  S
Mg321       O332   2.298       .  S
O322       Mg364   2.150       .  S
O322       Mg347   2.127       .  S
O322        C343   1.237       .  S
O323        C354   1.272       .  A
O323       Mg347   2.301       .  S
C324       C1574   1.495       .  S
C324        O326   1.275       .  A
C324        O338   1.271       .  A
O325        C353   1.271       .  A
O325       Mg327   2.299       .  S
O326       Mg358   2.275       .  S
Mg327       O333   2.126       .  S
Mg327       O341   2.240       .  S
Mg327       O329   2.316       .  S
C328       C1174   1.487       .  S
C328        O366   1.271       .  A
C328        O334   1.274       .  A
O329        C336   1.277       .  A
H330        C343   1.081       .  S
C331        H356   1.081       .  S
C331        O345   1.237       .  S
C331        O346   1.270       .  A
O332        C355   1.270       .  A
O333       Mg347   2.140       .  S
O334       Mg364   2.305       .  S
C335       C1638   1.481       .  S
C335        O348   1.273       .  A
C335        O340   1.274       .  A
C336       C1142   1.499       .  S
C336        O363   1.269       .  A
Mg337       O344   2.130       .  S
Mg337       O345   2.150       .  S
Mg337       O338   2.284       .  S
Mg337       O339   2.291       .  S
Mg337       O366   2.245       .  S
O339        C343   1.270       .  A
O340       Mg347   2.300       .  S
O341        C360   1.269       .  A
O342        C362   1.275       .  A
O342       Mg358   2.314       .  S
O344       Mg358   2.148       .  S
O344        C355   1.236       .  S
O345       Mg364   2.133       .  S
O346       Mg358   2.297       .  S
Mg347       O363   2.256       .  S
O348       Mg364   2.265       .  S
H349        C354   1.081       .  S
O350       Mg358   2.140       .  S
O350        C353   1.237       .  S
H351        C353   1.081       .  S
H352        C355   1.081       .  S
O357       Mg364   2.296       .  S
C360       C1110   1.485       .  S
C360        O365   1.279       .  A
O361        C362   1.275       .  A
C362       C1126   1.499       .  S
C367        C368   1.404       .  A
C367        C372   1.402   1_545  A
C367       C1145   1.478       .  S
C368        C369   1.406   1_545  A
C368        H373   1.084       .  S
C369        C370   1.404       .  A
C369       C1078   1.491       .  S
C370        C371   1.401       .  A
C370        H374   1.084       .  S
C371        C372   1.402       .  A
C371       C1097   1.477       .  S
C372        H375   1.084       .  S
O376       Mg378   2.133       .  S
O376       Mg384   2.149       .  S
O376        C411   1.236       .  S
C377        H416   1.081       .  S
C377        O390   1.237       .  S
C377        O414   1.270       .  A
Mg378       O407   2.150       .  S
Mg378       O422   2.297       .  S
Mg378       O418   2.256       .  S
Mg378       O389   2.296       .  S
O379       Mg421   2.149       .  S
O379       Mg404   2.122       .  S
O379        C400   1.237       .  S
O380        C411   1.270       .  A
O380       Mg404   2.295       .  S
C381       C1526   1.500       .  S
C381        O383   1.274       .  A
C381        O395   1.278       .  A
O382        C410   1.271       .  A
O382       Mg384   2.303       .  S
O383       Mg415   2.282       .  S
Mg384       O390   2.125       .  S
Mg384       O398   2.252       .  S
Mg384       O386   2.306       .  S
C385       C1046   1.494       .  S
C385        O423   1.275       .  A
C385        O391   1.273       .  A
O386        C393   1.274       .  A
H387        C400   1.081       .  S
C388        H413   1.081       .  S
C388        O402   1.236       .  S
C388        O403   1.269       .  A
O389        C412   1.270       .  A
O390       Mg404   2.148       .  S
O391       Mg421   2.296       .  S
C392       C1593   1.489       .  S
C392        O405   1.273       .  A
C392        O397   1.272       .  A
C393       C1062   1.494       .  S
C393        O420   1.272       .  A
Mg394       O401   2.134       .  S
Mg394       O402   2.149       .  S
Mg394       O395   2.308       .  S
Mg394       O396   2.292       .  S
Mg394       O423   2.267       .  S
O396        C400   1.270       .  A
O397       Mg404   2.285       .  S
O398        C417   1.271       .  A
O399        C419   1.275       .  A
O399       Mg415   2.310       .  S
O401       Mg415   2.149       .  S
O401        C412   1.236       .  S
O402       Mg421   2.131       .  S
O403       Mg415   2.293       .  S
Mg404       O420   2.251       .  S
O405       Mg421   2.269       .  S
H406        C411   1.081       .  S
O407       Mg415   2.144       .  S
O407        C410   1.237       .  S
H408        C410   1.081       .  S
H409        C412   1.081       .  S
O414       Mg421   2.294       .  S
C417       C1913   1.492       .  S
C417        O422   1.273       .  A
O418        C419   1.272       .  A
C419       C1094   1.496       .  S
C424        C425   1.403       .  A
C424        C429   1.398       .  A
C424       C1065   1.473       .  S
C425        C426   1.405   1_455  A
C425        H430   1.084       .  S
C426        C427   1.405       .  A
C426       C1033   1.483       .  S
C427        C428   1.405   1_655  A
C427        H431   1.084       .  S
C428        C429   1.400       .  A
C428       C1014   1.486       .  S
C429        H432   1.082       .  S
C433        C434   1.401       .  A
C433        C438   1.401       .  A
C433       C1129   1.478       .  S
C434        C435   1.409       .  A
C434        H439   1.082       .  S
C435        C436   1.410   1_455  A
C435        C982   1.503       .  S
C436        C437   1.405       .  A
C436        H440   1.081       .  S
C437        C438   1.403   1_655  A
C437       C1001   1.484       .  S
C438        H441   1.084       .  S
O442       Mg444   2.142       .  S
O442       Mg450   2.152       .  S
O442        C477   1.237       .  S
C443        H482   1.081       .  S
C443        O456   1.238       .  S
C443        O480   1.273       .  A
Mg444       O473   2.152       .  S
Mg444       O488   2.320       .  S
Mg444       O484   2.275       .  S
Mg444       O455   2.298       .  S
O445       Mg487   2.146       .  S
O445       Mg470   2.150       .  S
O445        C466   1.237       .  S
O446        C477   1.271       .  A
O446       Mg470   2.301       .  S
C447       C1865   1.490       .  S
C447        O449   1.271       .  A
C447        O461   1.279       .  A
O448        C476   1.270       .  A
O448       Mg450   2.297       .  S
O449       Mg481   2.257       .  S
Mg450       O456   2.152       .  S
Mg450       O464   2.278       .  S
Mg450       O452   2.319       .  S
C451        C969   1.501       .  S
C451        O489   1.276       .  A
C451        O457   1.275       .  A
O452        C459   1.278       .  A
H453        C466   1.081       .  S
C454        H479   1.081       .  S
C454        O468   1.237       .  S
C454        O469   1.270       .  A
O455        C478   1.271       .  A
O456       Mg470   2.150       .  S
O457       Mg487   2.317       .  S
C458       C1622   1.485       .  S
C458        O471   1.271       .  A
C458        O463   1.276       .  A
C459        C950   1.492       .  S
C459        O486   1.273       .  A
Mg460       O467   2.141       .  S
Mg460       O468   2.147       .  S
Mg460       O461   2.329       .  S
Mg460       O462   2.304       .  S
Mg460       O489   2.281       .  S
O462        C466   1.272       .  A
O463       Mg470   2.320       .  S
O464        C483   1.273       .  A
O465        C485   1.275       .  A
O465       Mg481   2.298       .  S
O467       Mg481   2.149       .  S
O467        C478   1.237       .  S
O468       Mg487   2.130       .  S
O469       Mg481   2.293       .  S
Mg470       O486   2.275       .  S
O471       Mg487   2.251       .  S
H472        C477   1.081       .  S
O473       Mg481   2.142       .  S
O473        C476   1.236       .  S
H474        C476   1.081       .  S
H475        C478   1.081       .  S
O480       Mg487   2.306       .  S
C483       C1686   1.504       .  S
C483        O488   1.279       .  A
O484        C485   1.273       .  A
C485        C998   1.498       .  S
C490        C491   1.403       .  A
C490        C495   1.407       .  A
C490        C934   1.483       .  S
C491        C492   1.403       .  A
C491        H496   1.083       .  S
C492        C493   1.403       .  A
C492        C918   1.487       .  S
C493        C494   1.404       .  A
C493        H497   1.084   1_565  S
C494        C495   1.409       .  A
C494        C966   1.489   1_565  S
C495        H498   1.083       .  S
O499       Mg501   2.147       .  S
O499       Mg507   2.149       .  S
O499        C534   1.237       .  S
C500        H539   1.081       .  S
C500        O513   1.237       .  S
C500        O537   1.270       .  A
Mg501       O530   2.155       .  S
Mg501       O545   2.321       .  S
Mg501       O541   2.295       .  S
Mg501       O512   2.300       .  S
O502       Mg544   2.150       .  S
O502       Mg527   2.142       .  S
O502        C523   1.236       .  S
O503        C534   1.271       .  A
O503       Mg527   2.300       .  S
C504       C1030   1.495       .  S
C504        O506   1.271       .  A
C504        O518   1.277       .  A
O505        C533   1.271       .  A
O505       Mg507   2.299       .  S
O506       Mg538   2.266       .  S
Mg507       O513   2.139       .  S
Mg507       O521   2.255       .  S
Mg507       O509   2.321       .  S
C508       C1833   1.500       .  S
C508        O546   1.274       .  A
C508        O514   1.275       .  A
O509        C516   1.278       .  A
H510        C523   1.081       .  S
C511        H536   1.081       .  S
C511        O525   1.237       .  S
C511        O526   1.271       .  A
O512        C535   1.271       .  A
O513       Mg527   2.147       .  S
O514       Mg544   2.310       .  S
C515        C937   1.496       .  S
C515        O528   1.274       .  A
C515        O520   1.278       .  A
C516       C1545   1.503       .  S
C516        O543   1.273       .  A
Mg517       O524   2.140       .  S
Mg517       O525   2.154       .  S
Mg517       O518   2.311       .  S
Mg517       O519   2.298       .  S
Mg517       O546   2.268       .  S
O519        C523   1.270       .  A
O520       Mg527   2.327       .  S
O521        C540   1.273       .  A
O522        C542   1.273       .  A
O522       Mg538   2.293       .  S
O524       Mg538   2.150       .  S
O524        C535   1.237       .  S
O525       Mg544   2.142       .  S
O526       Mg538   2.299       .  S
Mg527       O543   2.276       .  S
O528       Mg544   2.268       .  S
H529        C534   1.081       .  S
O530       Mg538   2.136       .  S
O530        C533   1.237       .  S
H531        C533   1.081       .  S
H532        C535   1.081       .  S
O537       Mg544   2.296       .  S
C540        C902   1.495       .  S
C540        O545   1.277       .  A
O541        C542   1.276       .  A
C542       C1673   1.500       .  S
C547        C548   1.407       .  A
C547        C552   1.404       .  A
C547       C1337   1.484       .  S
C548        C549   1.406       .  A
C548        H553   1.084       .  S
C549        C550   1.402   1_554  A
C549        C886   1.488       .  S
C550        C551   1.400       .  A
C550        H554   1.083       .  S
C551        C552   1.401   1_556  A
C551       C1049   1.476       .  S
C552        H555   1.083       .  S
C556        C557   1.405   1_554  A
C556        C561   1.404       .  A
C556       C1289   1.485       .  S
C557        C558   1.405       .  A
C557        H562   1.083       .  S
C558        C559   1.404       .  A
C558        C953   1.485       .  S
C559        C560   1.408       .  A
C559        H563   1.083       .  S
C560        C561   1.407   1_556  A
C560        C870   1.501       .  S
C561        H564   1.083       .  S
C565        C566   1.401       .  A
C565        C570   1.402       .  A
C565       C1209   1.472       .  S
C566        C567   1.402       .  A
C566        H571   1.082       .  S
C567        C568   1.405   1_554  A
C567        C854   1.485       .  S
C568        C569   1.400       .  A
C568        H572   1.084       .  S
C569        C570   1.401   1_556  A
C569        C905   1.474       .  S
C570        H573   1.084       .  S
C574        C575   1.404       .  A
C574        C579   1.405       .  A
C574       C1414   1.483       .  S
C575        C576   1.408       .  A
C575        H580   1.082       .  S
C576        C577   1.407       .  A
C576        C838   1.500       .  S
C577        C578   1.402       .  A
C577        H581   1.083       .  S
C578        C579   1.405       .  A
C578       C1270   1.485       .  S
C579        H582   1.083       .  S
C583        C584   1.409       .  A
C583        C588   1.407       .  A
C583       C1321   1.489       .  S
C584        C585   1.409       .  A
C584        H589   1.083       .  S
C585        C586   1.403       .  A
C585        C825   1.495       .  S
C586        C587   1.398       .  A
C586        H590   1.084       .  S
C587        C588   1.403       .  A
C587       C1433   1.479       .  S
C588        H591   1.083       .  S
C592        C593   1.404       .  A
C592        C597   1.401       .  A
C592       C1398   1.480       .  S
C593        C594   1.410       .  A
C593        H598   1.082       .  S
C594        C595   1.409       .  A
C594        C809   1.505       .  S
C595        C596   1.403       .  A
C595        H599   1.082       .  S
C596        C597   1.401       .  A
C596       C1113   1.482       .  S
C597        H600   1.083       .  S
N601        C606   1.351   1_455  A
N601        C605   1.348       .  A
N601        H633   1.041       .  S
N602        C609   1.352       .  A
N602        C610   1.352   1_565  A
N603        C608   1.355   1_455  A
N603        C607   1.355       .  A
N603        H634   1.040       .  S
N604        C611   1.351       .  A
N604        C612   1.348       .  A
C605        C613   1.387       .  A
C605        C621   1.409       .  A
C606        C622   1.411       .  A
C606        C614   1.387   1_655  A
C607        C615   1.388       .  A
C607        C624   1.422       .  A
C608        C623   1.419       .  A
C608        C616   1.386   1_655  A
C609        C621   1.414       .  A
C609        C617   1.385       .  A
C610        C624   1.417       .  A
C610        C618   1.389   1_545  A
C611        C619   1.385       .  A
C611        C622   1.410       .  A
C612        C620   1.387       .  A
C612        C623   1.412   1_565  A
C613        C614   1.377       .  A
C613        H625   1.082       .  S
C614        H626   1.082   1_455  S
C615        C616   1.375       .  A
C615        H627   1.081       .  S
C616        H628   1.082   1_455  S
C617        C618   1.371       .  A
C617        H629   1.082       .  S
C618        H630   1.080   1_565  S
C619        C620   1.373       .  A
C619        H631   1.082       .  S
C620        H632   1.082   1_565  S
C621       C1942   1.488       .  S
C622       C1849   1.490       .  S
C623       C1894   1.494       .  S
C624        C806   1.496       .  S
N635        C640   1.354   1_565  A
N635        C639   1.355       .  A
N635        H667   1.038       .  S
N636        C643   1.349       .  A
N636        C644   1.350   1_554  A
N637        C642   1.351       .  A
N637        C641   1.353       .  A
N637        H668   1.040       .  S
N638        C645   1.353   1_556  A
N638        C646   1.353       .  A
C639        C647   1.386       .  A
C639        C655   1.419       .  A
C640        C656   1.421       .  A
C640        C648   1.388   1_545  A
C641        C649   1.386       .  A
C641        C658   1.414       .  A
C642        C657   1.413   1_565  A
C642        C650   1.387       .  A
C643        C655   1.411       .  A
C643        C651   1.386       .  A
C644        C658   1.412       .  A
C644        C652   1.386       .  A
C645        C653   1.388       .  A
C645        C656   1.419       .  A
C646        C654   1.385       .  A
C646        C657   1.416       .  A
C647        C648   1.374       .  A
C647        H659   1.082       .  S
C648        H660   1.080   1_565  S
C649        C650   1.377       .  A
C649        H661   1.082       .  S
C650        H662   1.082       .  S
C651        C652   1.373   1_554  A
C651        H663   1.082       .  S
C652        H664   1.082       .  S
C653        C654   1.370   1_554  A
C653        H665   1.081       .  S
C654        H666   1.082       .  S
C655       C1798   1.492       .  S
C656        C841   1.495       .  S
C657       C1657   1.494       .  S
C658       C1561   1.492       .  S
N669        C674   1.360       .  A
N669        C673   1.360   1_455  A
N669        H701   1.040       .  S
N670        C677   1.345   1_556  A
N670        C678   1.351       .  A
N671        C676   1.351       .  A
N671        C675   1.352       .  A
N671        H702   1.045       .  S
N672        C679   1.344   1_556  A
N672        C680   1.351       .  A
C673        C681   1.387   1_655  A
C673        C689   1.426       .  A
C674        C690   1.426       .  A
C674        C682   1.387       .  A
C675        C683   1.386       .  A
C675        C692   1.400   1_455  A
C676        C691   1.401       .  A
C676        C684   1.385       .  A
C677        C689   1.416       .  A
C677        C685   1.392       .  A
C678        C692   1.409       .  A
C678        C686   1.381       .  A
C679        C687   1.391       .  A
C679        C690   1.417       .  A
C680        C688   1.382       .  A
C680        C691   1.410       .  A
C681        C682   1.372       .  A
C681        H693   1.082   1_455  S
C682        H694   1.082       .  S
C683        C684   1.364       .  A
C683        H695   1.083   1_455  S
C684        H696   1.083       .  S
C685        C686   1.379   1_554  A
C685        H697   1.082       .  S
C686        H698   1.082       .  S
C687        C688   1.381   1_554  A
C687        H699   1.082       .  S
C688        H700   1.082       .  S
C689       C1753   1.495       .  S
C690        C822   1.495       .  S
C691       C1609   1.499       .  S
C692       C1705   1.496       .  S
N703        C708   1.354   1_554  A
N703        C707   1.356   1_554  A
N703        H735   1.040       .  S
N704        C711   1.353       .  A
N704        C712   1.352       .  A
N705        C710   1.353       .  A
N705        C709   1.348       .  A
N705        H736   1.042   1_556  S
N706        C713   1.348       .  A
N706        C714   1.351       .  A
C707        C715   1.389       .  A
C707        C723   1.421       .  A
C708        C724   1.418   1_556  A
C708        C716   1.386       .  A
C709        C717   1.387       .  A
C709        C726   1.411       .  A
C710        C725   1.412   1_556  A
C710        C718   1.386       .  A
C711        C723   1.418       .  A
C711        C719   1.387   1_556  A
C712        C726   1.416       .  A
C712        C720   1.386   1_556  A
C713        C721   1.387       .  A
C713        C724   1.412       .  A
C714        C722   1.386       .  A
C714        C725   1.412       .  A
C715        C716   1.372       .  A
C715        H727   1.080       .  S
C716        H728   1.082       .  S
C717        C718   1.377       .  A
C717        H729   1.082       .  S
C718        H730   1.082       .  S
C719        C720   1.372       .  A
C719        H731   1.081       .  S
C720        H732   1.081       .  S
C721        C722   1.375       .  A
C721        H733   1.082       .  S
C722        H734   1.082       .  S
C723        C873   1.498       .  S
C724        C857   1.490       .  S
C725        C889   1.495       .  S
C726       C1161   1.490       .  S
N737        C742   1.349       .  A
N737        C741   1.353       .  A
N737        H769   1.040       .  S
N738        C745   1.350       .  A
N738        C746   1.348       .  A
N739        C744   1.354       .  A
N739        C743   1.354       .  A
N739        H770   1.040       .  S
N740        C747   1.353       .  A
N740        C748   1.353       .  A
C741        C749   1.386       .  A
C741        C757   1.412       .  A
C742        C758   1.411       .  A
C742        C750   1.387       .  A
C743        C751   1.386       .  A
C743        C760   1.416       .  A
C744        C759   1.418       .  A
C744        C752   1.389       .  A
C745        C757   1.410       .  A
C745        C753   1.385   1_455  A
C746        C760   1.411       .  A
C746        C754   1.387   1_455  A
C747        C755   1.386       .  A
C747        C758   1.415       .  A
C748        C756   1.387       .  A
C748        C759   1.417       .  A
C749        C750   1.377       .  A
C749        H761   1.082       .  S
C750        H762   1.082       .  S
C751        C752   1.373       .  A
C751        H763   1.082       .  S
C752        H764   1.080       .  S
C753        C754   1.374       .  A
C753        H765   1.082       .  S
C754        H766   1.082       .  S
C755        C756   1.371       .  A
C755        H767   1.081       .  S
C756        H768   1.082       .  S
C757       C1193   1.490       .  S
C758       C1017   1.490       .  S
C759        C985   1.494       .  S
C760       C1478   1.489       .  S
N771        C776   1.350       .  A
N771        C775   1.350       .  A
N771        H803   1.041       .  S
N772        C779   1.349       .  A
N772        C780   1.349       .  A
N773        C778   1.352       .  A
N773        C777   1.352       .  A
N773        H804   1.041       .  S
N774        C781   1.351       .  A
N774        C782   1.350       .  A
C775        C783   1.387       .  A
C775        C791   1.412       .  A
C776        C792   1.412       .  A
C776        C784   1.387       .  A
C777        C785   1.387       .  A
C777        C794   1.415       .  A
C778        C793   1.415       .  A
C778        C786   1.387       .  A
C779        C791   1.410       .  A
C779        C787   1.386       .  A
C780        C794   1.411       .  A
C780        C788   1.386       .  A
C781        C789   1.386       .  A
C781        C792   1.413       .  A
C782        C790   1.386       .  A
C782        C793   1.413       .  A
C783        C784   1.378       .  A
C783        H795   1.082       .  S
C784        H796   1.082       .  S
C785        C786   1.379       .  A
C785        H797   1.082       .  S
C786        H798   1.082       .  S
C787        C788   1.375       .  A
C787        H799   1.082   1_565  S
C788        H800   1.082   1_565  S
C789        C790   1.375       .  A
C789        H801   1.082       .  S
C790        H802   1.082   1_565  S
C791       C1241   1.486       .  S
C792        C921   1.492       .  S
C793       C1081   1.493       .  S
C794       C1369   1.492       .  S
C805        C806   1.403       .  A
C805        C810   1.404       .  A
C805        H812   1.085       .  S
C806        C807   1.414       .  A
C807        C808   1.402       .  A
C807        C814   1.509       .  S
C808        C809   1.412       .  A
C808        H813   1.082       .  S
C809        C810   1.423       .  A
C810        C811   1.509       .  S
C811        H815   1.111       .  S
C811        H816   1.107       .  S
C811        H817   1.110       .  S
C814        H818   1.108       .  S
C814        H819   1.110       .  S
C814        H820   1.111       .  S
C821        C822   1.402       .  A
C821        C826   1.401       .  A
C821        H828   1.085       .  S
C822        C823   1.416       .  A
C823        C824   1.406       .  A
C823        C830   1.507       .  S
C824        C825   1.407       .  A
C824        H829   1.084       .  S
C825        C826   1.421       .  A
C826        C827   1.509       .  S
C827        H831   1.111       .  S
C827        H832   1.107       .  S
C827        H833   1.110       .  S
C830        H834   1.108       .  S
C830        H835   1.110       .  S
C830        H836   1.110       .  S
C837        C838   1.410       .  A
C837        C842   1.403       .  A
C837        H844   1.083       .  S
C838        C839   1.422       .  A
C839        C840   1.402       .  A
C839        C846   1.509       .  S
C840        C841   1.402       .  A
C840        H845   1.085       .  S
C841        C842   1.415       .  A
C842        C843   1.508       .  S
C843        H847   1.110       .  S
C843        H848   1.110       .  S
C843        H849   1.108       .  S
C846        H850   1.110       .  S
C846        H851   1.107       .  S
C846        H852   1.111       .  S
C853        C854   1.405   1_556  A
C853        C858   1.399       .  A
C853        H860   1.085       .  S
C854        C855   1.418       .  A
C855        C856   1.403       .  A
C855        C862   1.509       .  S
C856        C857   1.404       .  A
C856        H861   1.084       .  S
C857        C858   1.415   1_554  A
C858        C859   1.509       .  S
C859        H863   1.111       .  S
C859        H864   1.110       .  S
C859        H865   1.107       .  S
C862        H866   1.106       .  S
C862        H867   1.110       .  S
C862        H868   1.111       .  S
C869        C870   1.410   1_554  A
C869        C874   1.403       .  A
C869        H876   1.083       .  S
C870        C871   1.421       .  A
C871        C872   1.404       .  A
C871        C878   1.509       .  S
C872        C873   1.404       .  A
C872        H877   1.085       .  S
C873        C874   1.416   1_556  A
C874        C875   1.509       .  S
C875        H879   1.110       .  S
C875        H880   1.110       .  S
C875        H881   1.108       .  S
C878        H882   1.110       .  S
C878        H883   1.107       .  S
C878        H884   1.111       .  S
C885        C886   1.405       .  A
C885        C890   1.406       .  A
C885        H892   1.084       .  S
C886        C887   1.418   1_554  A
C887        C888   1.404       .  A
C887        C894   1.509       .  S
C888        C889   1.403   1_556  A
C888        H893   1.084       .  S
C889        C890   1.416       .  A
C890        C891   1.508       .  S
C891        H895   1.111       .  S
C891        H896   1.110       .  S
C891        H897   1.107       .  S
C894        H898   1.110       .  S
C894        H899   1.107       .  S
C894        H900   1.111       .  S
C901        C902   1.411       .  A
C901        C906   1.401       .  A
C901        H908   1.084       .  S
C902        C903   1.423       .  A
C903        C904   1.407       .  A
C903        C910   1.508       .  S
C904        C905   1.399       .  A
C904        H909   1.084       .  S
C905        C906   1.407       .  A
C906        C907   1.508       .  S
C907        H911   1.111       .  S
C907        H912   1.110       .  S
C907        H913   1.110       .  S
C910        H914   1.110       .  S
C910        H915   1.110       .  S
C910        H916   1.111       .  S
C917        C918   1.405       .  A
C917        C922   1.402       .  A
C917        H924   1.085       .  S
C918        C919   1.417       .  A
C919        C920   1.404       .  A
C919        C926   1.509       .  S
C920        C921   1.403       .  A
C920        H925   1.084       .  S
C921        C922   1.417       .  A
C922        C923   1.509   1_565  S
C923        H927   1.111       .  S
C923        H928   1.107       .  S
C923        H929   1.110       .  S
C926        H930   1.110       .  S
C926        H931   1.107       .  S
C926        H932   1.111       .  S
C933        C934   1.401       .  A
C933        C938   1.409       .  A
C933        H940   1.084       .  S
C934        C935   1.410       .  A
C935        C936   1.405       .  A
C935        C942   1.507       .  S
C936        C937   1.410       .  A
C936        H941   1.084       .  S
C937        C938   1.422       .  A
C938        C939   1.508       .  S
C939        H943   1.111       .  S
C939        H944   1.110       .  S
C939        H945   1.109       .  S
C942        H946   1.110       .  S
C942        H947   1.110       .  S
C942        H948   1.111       .  S
C949        C950   1.407       .  A
C949        C954   1.406       .  A
C949        H956   1.084       .  S
C950        C951   1.420       .  A
C951        C952   1.406       .  A
C951        C958   1.507       .  S
C952        C953   1.402       .  A
C952        H957   1.084       .  S
C953        C954   1.413       .  A
C954        C955   1.507       .  S
C955        H959   1.111       .  S
C955        H960   1.109       .  S
C955        H961   1.110       .  S
C958        H962   1.109       .  S
C958        H963   1.110       .  S
C958        H964   1.111       .  S
C965        C966   1.403       .  A
C965        C970   1.407       .  A
C965        H972   1.084       .  S
C966        C967   1.413       .  A
C967        C968   1.407       .  A
C967        C974   1.508       .  S
C968        C969   1.410       .  A
C968        H973   1.083       .  S
C969        C970   1.424       .  A
C970        C971   1.509       .  S
C971        H975   1.111       .  S
C971        H976   1.110       .  S
C971        H977   1.110       .  S
C974        H978   1.110       .  S
C974        H979   1.108   1_545  S
C974        H980   1.111       .  S
C981        C982   1.411   1_655  A
C981        C986   1.403       .  A
C981        H988   1.081       .  S
C982        C983   1.423       .  A
C983        C984   1.403       .  A
C983        C990   1.509       .  S
C984        C985   1.402       .  A
C984        H989   1.085       .  S
C985        C986   1.412   1_455  A
C986        C987   1.510       .  S
C987        H991   1.111       .  S
C987        H992   1.110       .  S
C987        H993   1.106       .  S
C990        H994   1.107       .  S
C990        H995   1.110       .  S
C990        H996   1.111       .  S
C997        C998   1.412       .  A
C997       C1002   1.404       .  A
C997       H1004   1.083       .  S
C998        C999   1.423       .  A
C999       C1000   1.406       .  A
C999       C1006   1.509       .  S
C1000      C1001   1.402       .  A
C1000      H1005   1.084       .  S
C1001      C1002   1.411       .  A
C1002      C1003   1.509       .  S
C1003      H1007   1.111       .  S
C1003      H1008   1.110       .  S
C1003      H1009   1.107       .  S
C1006      H1010   1.110       .  S
C1006      H1011   1.110       .  S
C1006      H1012   1.111       .  S
C1013      C1014   1.404       .  A
C1013      C1018   1.400       .  A
C1013      H1020   1.084   1_455  S
C1014      C1015   1.419       .  A
C1015      C1016   1.404       .  A
C1015      C1022   1.510       .  S
C1016      C1017   1.403       .  A
C1016      H1021   1.084       .  S
C1017      C1018   1.414       .  A
C1018      C1019   1.509   1_455  S
C1019      H1023   1.111       .  S
C1019      H1024   1.110       .  S
C1019      H1025   1.107       .  S
C1022      H1026   1.110       .  S
C1022      H1027   1.106       .  S
C1022      H1028   1.111       .  S
C1029      C1030   1.408       .  A
C1029      C1034   1.402       .  A
C1029      H1036   1.084       .  S
C1030      C1031   1.423       .  A
C1031      C1032   1.407       .  A
C1031      C1038   1.508       .  S
C1032      C1033   1.401       .  A
C1032      H1037   1.084       .  S
C1033      C1034   1.415       .  A
C1034      C1035   1.509       .  S
C1035      H1039   1.111       .  S
C1035      H1040   1.110       .  S
C1035      H1041   1.107       .  S
C1038      H1042   1.109       .  S
C1038      H1043   1.110       .  S
C1038      H1044   1.111       .  S
C1045      C1046   1.409       .  A
C1045      C1050   1.401       .  A
C1045      H1052   1.083       .  S
C1046      C1047   1.425       .  A
C1047      C1048   1.406       .  A
C1047      C1054   1.509       .  S
C1048      C1049   1.399       .  A
C1048      H1053   1.084       .  S
C1049      C1050   1.408       .  A
C1050      C1051   1.507       .  S
C1051      H1055   1.111       .  S
C1051      H1056   1.110       .  S
C1051      H1057   1.110       .  S
C1054      H1058   1.110       .  S
C1054      H1059   1.111       .  S
C1054      H1060   1.111       .  S
C1061      C1062   1.410       .  A
C1061      C1066   1.400       .  A
C1061      H1068   1.084       .  S
C1062      C1063   1.424       .  A
C1063      C1064   1.406       .  A
C1063      C1070   1.509       .  S
C1064      C1065   1.398       .  A
C1064      H1069   1.084       .  S
C1065      C1066   1.407       .  A
C1066      C1067   1.508       .  S
C1067      H1071   1.111       .  S
C1067      H1072   1.110       .  S
C1067      H1073   1.110       .  S
C1070      H1074   1.110       .  S
C1070      H1075   1.110       .  S
C1070      H1076   1.111       .  S
C1077      C1078   1.406   1_545  A
C1077      C1082   1.403       .  A
C1077      H1084   1.084       .  S
C1078      C1079   1.420       .  A
C1079      C1080   1.402       .  A
C1079      C1086   1.509       .  S
C1080      C1081   1.403       .  A
C1080      H1085   1.085       .  S
C1081      C1082   1.416   1_565  A
C1082      C1083   1.508       .  S
C1083      H1087   1.110       .  S
C1083      H1088   1.110       .  S
C1083      H1089   1.107       .  S
C1086      H1090   1.110       .  S
C1086      H1091   1.107       .  S
C1086      H1092   1.111       .  S
C1093      C1094   1.412       .  A
C1093      C1098   1.404       .  A
C1093      H1100   1.083       .  S
C1094      C1095   1.423       .  A
C1095      C1096   1.403       .  A
C1095      C1102   1.509       .  S
C1096      C1097   1.399       .  A
C1096      H1101   1.085       .  S
C1097      C1098   1.408       .  A
C1098      C1099   1.507       .  S
C1099      H1103   1.111       .  S
C1099      H1104   1.110       .  S
C1099      H1105   1.109       .  S
C1102      H1106   1.110       .  S
C1102      H1107   1.110       .  S
C1102      H1108   1.111       .  S
C1109      C1110   1.406       .  A
C1109      C1114   1.405       .  A
C1109      H1116   1.084       .  S
C1110      C1111   1.420       .  A
C1111      C1112   1.402       .  A
C1111      C1118   1.510       .  S
C1112      C1113   1.400       .  A
C1112      H1117   1.084       .  S
C1113      C1114   1.414       .  A
C1114      C1115   1.507       .  S
C1115      H1119   1.111       .  S
C1115      H1120   1.110       .  S
C1115      H1121   1.109       .  S
C1118      H1122   1.110       .  S
C1118      H1123   1.109       .  S
C1118      H1124   1.111       .  S
C1125      C1126   1.410       .  A
C1125      C1130   1.402       .  A
C1125      H1132   1.083       .  S
C1126      C1127   1.426       .  A
C1127      C1128   1.408       .  A
C1127      C1134   1.509       .  S
C1128      C1129   1.399       .  A
C1128      H1133   1.084       .  S
C1129      C1130   1.408       .  A
C1130      C1131   1.508       .  S
C1131      H1135   1.111       .  S
C1131      H1136   1.110       .  S
C1131      H1137   1.110       .  S
C1134      H1138   1.110       .  S
C1134      H1139   1.110       .  S
C1134      H1140   1.111       .  S
C1141      C1142   1.411       .  A
C1141      C1146   1.404       .  A
C1141      H1148   1.083       .  S
C1142      C1143   1.426       .  A
C1143      C1144   1.406       .  A
C1143      C1150   1.509       .  S
C1144      C1145   1.398       .  A
C1144      H1149   1.084       .  S
C1145      C1146   1.408       .  A
C1146      C1147   1.507       .  S
C1147      H1151   1.111       .  S
C1147      H1152   1.111       .  S
C1147      H1153   1.110       .  S
C1150      H1154   1.110       .  S
C1150      H1155   1.110       .  S
C1150      H1156   1.111       .  S
C1157      C1158   1.403   1_554  A
C1157      C1162   1.399       .  A
C1157      H1164   1.085       .  S
C1158      C1159   1.418       .  A
C1159      C1160   1.402       .  A
C1159      C1166   1.509       .  S
C1160      C1161   1.403       .  A
C1160      H1165   1.084       .  S
C1161      C1162   1.417   1_556  A
C1162      C1163   1.510       .  S
C1163      H1167   1.111       .  S
C1163      H1168   1.110       .  S
C1163      H1169   1.106       .  S
C1166      H1170   1.106       .  S
C1166      H1171   1.111       .  S
C1166      H1172   1.111       .  S
C1173      C1174   1.410       .  A
C1173      C1178   1.400       .  A
C1173      H1180   1.084       .  S
C1174      C1175   1.421       .  A
C1175      C1176   1.404       .  A
C1175      C1182   1.509       .  S
C1176      C1177   1.399       .  A
C1176      H1181   1.084       .  S
C1177      C1178   1.406       .  A
C1178      C1179   1.507       .  S
C1179      H1183   1.111       .  S
C1179      H1184   1.110       .  S
C1179      H1185   1.110       .  S
C1182      H1186   1.110       .  S
C1182      H1187   1.110       .  S
C1182      H1188   1.111       .  S
C1189      C1190   1.407       .  A
C1189      C1194   1.404       .  A
C1189      H1196   1.084   1_455  S
C1190      C1191   1.418       .  A
C1191      C1192   1.405       .  A
C1191      C1198   1.509       .  S
C1192      C1193   1.402       .  A
C1192      H1197   1.084       .  S
C1193      C1194   1.411       .  A
C1194      C1195   1.507   1_455  S
C1195      H1199   1.111       .  S
C1195      H1200   1.109       .  S
C1195      H1201   1.110       .  S
C1198      H1202   1.107       .  S
C1198      H1203   1.110       .  S
C1198      H1204   1.111       .  S
C1205      C1206   1.408       .  A
C1205      C1210   1.400       .  A
C1205      H1212   1.084       .  S
C1206      C1207   1.423       .  A
C1207      C1208   1.405       .  A
C1207      C1214   1.509       .  S
C1208      C1209   1.399       .  A
C1208      H1213   1.084       .  S
C1209      C1210   1.407       .  A
C1210      C1211   1.507       .  S
C1211      H1215   1.111       .  S
C1211      H1216   1.110       .  S
C1211      H1217   1.111       .  S
C1214      H1218   1.110       .  S
C1214      H1219   1.110       .  S
C1214      H1220   1.111       .  S
C1221      C1222   1.408       .  A
C1221      C1226   1.401       .  A
C1221      H1228   1.084       .  S
C1222      C1223   1.421       .  A
C1223      C1224   1.407       .  A
C1223      C1230   1.508       .  S
C1224      C1225   1.401       .  A
C1224      H1229   1.084       .  S
C1225      C1226   1.408       .  A
C1226      C1227   1.507       .  S
C1227      H1231   1.111       .  S
C1227      H1232   1.110       .  S
C1227      H1233   1.110       .  S
C1230      H1234   1.110       .  S
C1230      H1235   1.110       .  S
C1230      H1236   1.111       .  S
C1237      C1238   1.401       .  A
C1237      C1242   1.399       .  A
C1237      H1244   1.085   1_565  S
C1238      C1239   1.416       .  A
C1239      C1240   1.403       .  A
C1239      C1246   1.509       .  S
C1240      C1241   1.404       .  A
C1240      H1245   1.084       .  S
C1241      C1242   1.416       .  A
C1242      C1243   1.509   1_565  S
C1243      H1247   1.110       .  S
C1243      H1248   1.110       .  S
C1243      H1249   1.107       .  S
C1246      H1250   1.108       .  S
C1246      H1251   1.110       .  S
C1246      H1252   1.111       .  S
C1253      C1254   1.401       .  A
C1253      C1258   1.405       .  A
C1253      H1260   1.084       .  S
C1254      C1255   1.410       .  A
C1255      C1256   1.401       .  A
C1255      C1262   1.508       .  S
C1256      C1257   1.406       .  A
C1256      H1261   1.084       .  S
C1257      C1258   1.420       .  A
C1258      C1259   1.509       .  S
C1259      H1263   1.111       .  S
C1259      H1264   1.110       .  S
C1259      H1265   1.111       .  S
C1262      H1266   1.110       .  S
C1262      H1267   1.111       .  S
C1262      H1268   1.111       .  S
C1269      C1270   1.400       .  A
C1269      C1274   1.407       .  A
C1269      H1276   1.084       .  S
C1270      C1271   1.412       .  A
C1271      C1272   1.406       .  A
C1271      C1278   1.508       .  S
C1272      C1273   1.411       .  A
C1272      H1277   1.083       .  S
C1273      C1274   1.424       .  A
C1274      C1275   1.505       .  S
C1275      H1279   1.111       .  S
C1275      H1280   1.109       .  S
C1275      H1281   1.110       .  S
C1278      H1282   1.109       .  S
C1278      H1283   1.111       .  S
C1278      H1284   1.111       .  S
C1285      C1286   1.405       .  A
C1285      C1290   1.406       .  A
C1285      H1292   1.084       .  S
C1286      C1287   1.421       .  A
C1287      C1288   1.404       .  A
C1287      C1294   1.510       .  S
C1288      C1289   1.402       .  A
C1288      H1293   1.084       .  S
C1289      C1290   1.414       .  A
C1290      C1291   1.507       .  S
C1291      H1295   1.111       .  S
C1291      H1296   1.109       .  S
C1291      H1297   1.110       .  S
C1294      H1298   1.109       .  S
C1294      H1299   1.110       .  S
C1294      H1300   1.111       .  S
C1301      C1302   1.409       .  A
C1301      C1306   1.405       .  A
C1301      H1308   1.084       .  S
C1302      C1303   1.419       .  A
C1303      C1304   1.404       .  A
C1303      C1310   1.504       .  S
C1304      C1305   1.400       .  A
C1304      H1309   1.084       .  S
C1305      C1306   1.410       .  A
C1306      C1307   1.507       .  S
C1307      H1311   1.111       .  S
C1307      H1312   1.109       .  S
C1307      H1313   1.110       .  S
C1310      H1314   1.109       .  S
C1310      H1315   1.110       .  S
C1310      H1316   1.111       .  S
C1317      C1318   1.411       .  A
C1317      C1322   1.408       .  A
C1317      H1324   1.083       .  S
C1318      C1319   1.425       .  A
C1319      C1320   1.407       .  A
C1319      C1326   1.509       .  S
C1320      C1321   1.401       .  A
C1320      H1325   1.084       .  S
C1321      C1322   1.412       .  A
C1322      C1323   1.507       .  S
C1323      H1327   1.111       .  S
C1323      H1328   1.109       .  S
C1323      H1329   1.110       .  S
C1326      H1330   1.110       .  S
C1326      H1331   1.110       .  S
C1326      H1332   1.111       .  S
C1333      C1334   1.410       .  A
C1333      C1338   1.403       .  A
C1333      H1340   1.083       .  S
C1334      C1335   1.423       .  A
C1335      C1336   1.408       .  A
C1335      C1342   1.509       .  S
C1336      C1337   1.402       .  A
C1336      H1341   1.084       .  S
C1337      C1338   1.411       .  A
C1338      C1339   1.508       .  S
C1339      H1343   1.111       .  S
C1339      H1344   1.110       .  S
C1339      H1345   1.109       .  S
C1342      H1346   1.110       .  S
C1342      H1347   1.110       .  S
C1342      H1348   1.111       .  S
C1349      C1350   1.410       .  A
C1349      C1354   1.403       .  A
C1349      H1356   1.083       .  S
C1350      C1351   1.427       .  A
C1351      C1352   1.407       .  A
C1351      C1358   1.508       .  S
C1352      C1353   1.398       .  A
C1352      H1357   1.084       .  S
C1353      C1354   1.408       .  A
C1354      C1355   1.507       .  S
C1355      H1359   1.111       .  S
C1355      H1360   1.110       .  S
C1355      H1361   1.110       .  S
C1358      H1362   1.110       .  S
C1358      H1363   1.108       .  S
C1358      H1364   1.111       .  S
C1365      C1366   1.406       .  A
C1365      C1370   1.400       .  A
C1365      H1372   1.085       .  S
C1366      C1367   1.419   1_565  A
C1367      C1368   1.405       .  A
C1367      C1374   1.509       .  S
C1368      C1369   1.403   1_545  A
C1368      H1373   1.084       .  S
C1369      C1370   1.415       .  A
C1370      C1371   1.509       .  S
C1371      H1375   1.111       .  S
C1371      H1376   1.107       .  S
C1371      H1377   1.110       .  S
C1374      H1378   1.110       .  S
C1374      H1379   1.107       .  S
C1374      H1380   1.111       .  S
C1381      C1382   1.400       .  A
C1381      C1386   1.405       .  A
C1381      H1388   1.084       .  S
C1382      C1383   1.410       .  A
C1383      C1384   1.404       .  A
C1383      C1390   1.508       .  S
C1384      C1385   1.410       .  A
C1384      H1389   1.083       .  S
C1385      C1386   1.425       .  A
C1386      C1387   1.510       .  S
C1387      H1391   1.111       .  S
C1387      H1392   1.110       .  S
C1387      H1393   1.110       .  S
C1390      H1394   1.110       .  S
C1390      H1395   1.109       .  S
C1390      H1396   1.111       .  S
C1397      C1398   1.397       .  A
C1397      C1402   1.406       .  A
C1397      H1404   1.084       .  S
C1398      C1399   1.411       .  A
C1399      C1400   1.404       .  A
C1399      C1406   1.508       .  S
C1400      C1401   1.409       .  A
C1400      H1405   1.083       .  S
C1401      C1402   1.428       .  A
C1402      C1403   1.508       .  S
C1403      H1407   1.111       .  S
C1403      H1408   1.109       .  S
C1403      H1409   1.110       .  S
C1406      H1410   1.111       .  S
C1406      H1411   1.109       .  S
C1406      H1412   1.111       .  S
C1413      C1414   1.402       .  A
C1413      C1418   1.407       .  A
C1413      H1420   1.084       .  S
C1414      C1415   1.412       .  A
C1415      C1416   1.405       .  A
C1415      C1422   1.507       .  S
C1416      C1417   1.407       .  A
C1416      H1421   1.084       .  S
C1417      C1418   1.419       .  A
C1418      C1419   1.508       .  S
C1419      H1423   1.111       .  S
C1419      H1424   1.107       .  S
C1419      H1425   1.110       .  S
C1422      H1426   1.109       .  S
C1422      H1427   1.110       .  S
C1422      H1428   1.111       .  S
C1429      C1430   1.412       .  A
C1429      C1434   1.405       .  A
C1429      H1436   1.083       .  S
C1430      C1431   1.425       .  A
C1431      C1432   1.406       .  A
C1431      C1438   1.509       .  S
C1432      C1433   1.399       .  A
C1432      H1437   1.085       .  S
C1433      C1434   1.408       .  A
C1434      C1435   1.507       .  S
C1435      H1439   1.111       .  S
C1435      H1440   1.110       .  S
C1435      H1441   1.110       .  S
C1438      H1442   1.110       .  S
C1438      H1443   1.110       .  S
C1438      H1444   1.111       .  S
C1445      C1446   1.409       .  A
C1445      C1450   1.401       .  A
C1445      H1452   1.084       .  S
C1446      C1447   1.422       .  A
C1447      C1448   1.404       .  A
C1447      C1454   1.509       .  S
C1448      C1449   1.400       .  A
C1448      H1453   1.084       .  S
C1449      C1450   1.410       .  A
C1450      C1451   1.509       .  S
C1451      H1455   1.111       .  S
C1451      H1456   1.108       .  S
C1451      H1457   1.110       .  S
C1454      H1458   1.110       .  S
C1454      H1459   1.110       .  S
C1454      H1460   1.111       .  S
C1461      C1462   1.396       .  A
C1461      C1466   1.405       .  A
C1461      H1468   1.084       .  S
C1462      C1463   1.408       .  A
C1463      C1464   1.403       .  A
C1463      C1470   1.507       .  S
C1464      C1465   1.409       .  A
C1464      H1469   1.083       .  S
C1465      C1466   1.429       .  A
C1466      C1467   1.509       .  S
C1467      H1471   1.111       .  S
C1467      H1472   1.107       .  S
C1467      H1473   1.110       .  S
C1470      H1474   1.109       .  S
C1470      H1475   1.110       .  S
C1470      H1476   1.111       .  S
C1477      C1478   1.402       .  A
C1477      C1482   1.399       .  A
C1477      H1484   1.085       .  S
C1478      C1479   1.412   1_455  A
C1479      C1480   1.403       .  A
C1479      C1486   1.508       .  S
C1480      C1481   1.408   1_655  A
C1480      H1485   1.083       .  S
C1481      C1482   1.418       .  A
C1482      C1483   1.507       .  S
C1483      H1487   1.111       .  S
C1483      H1488   1.105       .  S
C1483      H1489   1.110       .  S
C1486      H1490   1.110       .  S
C1486      H1491   1.107       .  S
C1486      H1492   1.111       .  S
C1493      C1494   1.412       .  A
C1493      C1498   1.402       .  A
C1493      H1500   1.083       .  S
C1494      C1495   1.423       .  A
C1495      C1496   1.408       .  A
C1495      C1502   1.507       .  S
C1496      C1497   1.402       .  A
C1496      H1501   1.084       .  S
C1497      C1498   1.411       .  A
C1498      C1499   1.510       .  S
C1499      H1503   1.111       .  S
C1499      H1504   1.110       .  S
C1499      H1505   1.108       .  S
C1502      H1506   1.110       .  S
C1502      H1507   1.110       .  S
C1502      H1508   1.111       .  S
C1509      C1510   1.401       .  A
C1509      C1514   1.408       .  A
C1509      H1516   1.084       .  S
C1510      C1511   1.414       .  A
C1511      C1512   1.401       .  A
C1511      C1518   1.508       .  S
C1512      C1513   1.408       .  A
C1512      H1517   1.084       .  S
C1513      C1514   1.423       .  A
C1514      C1515   1.507       .  S
C1515      H1519   1.111       .  S
C1515      H1520   1.108       .  S
C1515      H1521   1.110       .  S
C1518      H1522   1.110       .  S
C1518      H1523   1.106       .  S
C1518      H1524   1.111       .  S
C1525      C1526   1.410       .  A
C1525      C1530   1.403       .  A
C1525      H1532   1.083       .  S
C1526      C1527   1.425       .  A
C1527      C1528   1.408       .  A
C1527      C1534   1.507       .  S
C1528      C1529   1.400       .  A
C1528      H1533   1.084       .  S
C1529      C1530   1.411       .  A
C1530      C1531   1.508       .  S
C1531      H1535   1.111       .  S
C1531      H1536   1.108       .  S
C1531      H1537   1.110       .  S
C1534      H1538   1.109       .  S
C1534      H1539   1.110       .  S
C1534      H1540   1.111       .  S
C1541      C1542   1.400       .  A
C1541      C1546   1.407       .  A
C1541      H1548   1.084       .  S
C1542      C1543   1.412       .  A
C1543      C1544   1.406       .  A
C1543      C1550   1.508       .  S
C1544      C1545   1.411       .  A
C1544      H1549   1.083       .  S
C1545      C1546   1.425       .  A
C1546      C1547   1.508       .  S
C1547      H1551   1.111       .  S
C1547      H1552   1.110       .  S
C1547      H1553   1.109       .  S
C1550      H1554   1.110       .  S
C1550      H1555   1.108       .  S
C1550      H1556   1.111       .  S
C1557      C1558   1.404       .  A
C1557      C1562   1.403       .  A
C1557      H1564   1.085       .  S
C1558      C1559   1.416       .  A
C1559      C1560   1.401       .  A
C1559      C1566   1.507       .  S
C1560      C1561   1.404       .  A
C1560      H1565   1.085       .  S
C1561      C1562   1.416       .  A
C1562      C1563   1.508       .  S
C1563      H1567   1.110       .  S
C1563      H1568   1.107       .  S
C1563      H1569   1.110       .  S
C1566      H1570   1.107       .  S
C1566      H1571   1.110       .  S
C1566      H1572   1.111       .  S
C1573      C1574   1.409       .  A
C1573      C1578   1.402       .  A
C1573      H1580   1.083       .  S
C1574      C1575   1.427       .  A
C1575      C1576   1.404       .  A
C1575      C1582   1.510       .  S
C1576      C1577   1.397       .  A
C1576      H1581   1.084       .  S
C1577      C1578   1.408       .  A
C1578      C1579   1.507       .  S
C1579      H1583   1.111       .  S
C1579      H1584   1.110       .  S
C1579      H1585   1.111       .  S
C1582      H1586   1.110       .  S
C1582      H1587   1.110       .  S
C1582      H1588   1.111       .  S
C1589      C1590   1.398       .  A
C1589      C1594   1.404       .  A
C1589      H1596   1.084       .  S
C1590      C1591   1.411       .  A
C1591      C1592   1.401       .  A
C1591      C1598   1.508       .  S
C1592      C1593   1.407       .  A
C1592      H1597   1.084       .  S
C1593      C1594   1.423       .  A
C1594      C1595   1.510       .  S
C1595      H1599   1.111       .  S
C1595      H1600   1.111       .  S
C1595      H1601   1.109       .  S
C1598      H1602   1.108       .  S
C1598      H1603   1.110       .  S
C1598      H1604   1.110       .  S
C1605      C1606   1.405       .  A
C1605      C1610   1.404       .  A
C1605      H1612   1.084       .  S
C1606      C1607   1.416       .  A
C1607      C1608   1.401       .  A
C1607      C1614   1.509       .  S
C1608      C1609   1.408       .  A
C1608      H1613   1.084       .  S
C1609      C1610   1.420       .  A
C1610      C1611   1.508       .  S
C1611      H1615   1.111       .  S
C1611      H1616   1.110       .  S
C1611      H1617   1.107       .  S
C1614      H1618   1.110       .  S
C1614      H1619   1.108       .  S
C1614      H1620   1.111       .  S
C1621      C1622   1.405       .  A
C1621      C1626   1.401       .  A
C1621      H1628   1.084       .  S
C1622      C1623   1.417       .  A
C1623      C1624   1.407       .  A
C1623      C1630   1.506       .  S
C1624      C1625   1.403       .  A
C1624      H1629   1.084       .  S
C1625      C1626   1.414       .  A
C1626      C1627   1.506       .  S
C1627      H1631   1.111       .  S
C1627      H1632   1.110       .  S
C1627      H1633   1.105       .  S
C1630      H1634   1.111       .  S
C1630      H1635   1.108       .  S
C1630      H1636   1.111       .  S
C1637      C1638   1.403       .  A
C1637      C1642   1.400       .  A
C1637      H1644   1.085       .  S
C1638      C1639   1.418       .  A
C1639      C1640   1.405       .  A
C1639      C1646   1.508       .  S
C1640      C1641   1.401       .  A
C1640      H1645   1.084       .  S
C1641      C1642   1.415       .  A
C1642      C1643   1.508       .  S
C1643      H1647   1.110       .  S
C1643      H1648   1.108       .  S
C1643      H1649   1.110       .  S
C1646      H1650   1.111       .  S
C1646      H1651   1.109       .  S
C1646      H1652   1.111       .  S
C1653      C1654   1.408       .  A
C1653      C1658   1.402       .  A
C1653      H1660   1.084       .  S
C1654      C1655   1.417       .  A
C1655      C1656   1.400       .  A
C1655      C1662   1.506       .  S
C1656      C1657   1.404       .  A
C1656      H1661   1.085       .  S
C1657      C1658   1.415       .  A
C1658      C1659   1.508       .  S
C1659      H1663   1.110       .  S
C1659      H1664   1.110       .  S
C1659      H1665   1.108       .  S
C1662      H1666   1.110       .  S
C1662      H1667   1.106       .  S
C1662      H1668   1.111       .  S
C1669      C1670   1.397       .  A
C1669      C1674   1.405       .  A
C1669      H1676   1.084       .  S
C1670      C1671   1.410       .  A
C1671      C1672   1.407       .  A
C1671      C1678   1.506       .  S
C1672      C1673   1.410       .  A
C1672      H1677   1.083       .  S
C1673      C1674   1.427       .  A
C1674      C1675   1.510       .  S
C1675      H1679   1.111       .  S
C1675      H1680   1.110       .  S
C1675      H1681   1.110       .  S
C1678      H1682   1.111       .  S
C1678      H1683   1.110       .  S
C1678      H1684   1.111       .  S
C1685      C1686   1.411       .  A
C1685      C1690   1.405       .  A
C1685      H1692   1.083       .  S
C1686      C1687   1.426       .  A
C1687      C1688   1.409       .  A
C1687      C1694   1.508       .  S
C1688      C1689   1.400       .  A
C1688      H1693   1.084       .  S
C1689      C1690   1.411       .  A
C1690      C1691   1.507       .  S
C1691      H1695   1.111       .  S
C1691      H1696   1.107       .  S
C1691      H1697   1.110       .  S
C1694      H1698   1.110       .  S
C1694      H1699   1.110       .  S
C1694      H1700   1.111       .  S
C1701      C1702   1.406       .  A
C1701      C1706   1.401       .  A
C1701      H1708   1.084       .  S
C1702      C1703   1.417       .  A
C1703      C1704   1.404       .  A
C1703      C1710   1.507       .  S
C1704      C1705   1.408       .  A
C1704      H1709   1.084       .  S
C1705      C1706   1.418       .  A
C1706      C1707   1.509       .  S
C1707      H1711   1.111       .  S
C1707      H1712   1.107       .  S
C1707      H1713   1.110       .  S
C1710      H1714   1.107       .  S
C1710      H1715   1.110       .  S
C1710      H1716   1.111       .  S
C1717      C1718   1.400       .  A
C1717      C1722   1.407       .  A
C1717      H1724   1.084       .  S
C1718      C1719   1.407       .  A
C1719      C1720   1.406       .  A
C1719      C1726   1.506       .  S
C1720      C1721   1.412       .  A
C1720      H1725   1.083       .  S
C1721      C1722   1.425       .  A
C1722      C1723   1.509       .  S
C1723      H1727   1.111       .  S
C1723      H1728   1.110       .  S
C1723      H1729   1.110       .  S
C1726      H1730   1.110       .  S
C1726      H1731   1.110       .  S
C1726      H1732   1.111       .  S
C1733      C1734   1.403       .  A
C1733      C1738   1.407       .  A
C1733      H1740   1.084       .  S
C1734      C1735   1.413       .  A
C1735      C1736   1.406       .  A
C1735      C1742   1.507       .  S
C1736      C1737   1.405       .  A
C1736      H1741   1.084       .  S
C1737      C1738   1.418       .  A
C1738      C1739   1.509       .  S
C1739      H1743   1.111       .  S
C1739      H1744   1.110       .  S
C1739      H1745   1.110       .  S
C1742      H1746   1.110       .  S
C1742      H1747   1.109       .  S
C1742      H1748   1.111       .  S
C1749      C1750   1.408       .  A
C1749      C1754   1.404       .  A
C1749      H1756   1.084       .  S
C1750      C1751   1.421       .  A
C1751      C1752   1.404       .  A
C1751      C1758   1.509       .  S
C1752      C1753   1.402       .  A
C1752      H1757   1.085       .  S
C1753      C1754   1.416       .  A
C1754      C1755   1.508       .  S
C1755      H1759   1.110       .  S
C1755      H1760   1.110       .  S
C1755      H1761   1.108       .  S
C1758      H1762   1.110       .  S
C1758      H1763   1.107       .  S
C1758      H1764   1.111       .  S
C1765      C1766   1.401       .  A
C1765      C1770   1.407       .  A
C1765      H1772   1.084       .  S
C1766      C1767   1.408       .  A
C1767      C1768   1.404       .  A
C1767      C1774   1.506       .  S
C1768      C1769   1.410       .  A
C1768      H1773   1.084       .  S
C1769      C1770   1.422       .  A
C1770      C1771   1.508       .  S
C1771      H1775   1.111       .  S
C1771      H1776   1.110       .  S
C1771      H1777   1.110       .  S
C1774      H1778   1.110       .  S
C1774      H1779   1.110       .  S
C1774      H1780   1.111       .  S
C1781      C1782   1.407       .  A
C1781      C1786   1.403       .  A
C1781      H1788   1.084       .  S
C1782      C1783   1.422       .  A
C1783      C1784   1.408       .  A
C1783      C1790   1.508       .  S
C1784      C1785   1.400       .  A
C1784      H1789   1.084       .  S
C1785      C1786   1.411       .  A
C1786      C1787   1.508       .  S
C1787      H1791   1.111       .  S
C1787      H1792   1.110       .  S
C1787      H1793   1.109       .  S
C1790      H1794   1.111       .  S
C1790      H1795   1.109       .  S
C1790      H1796   1.111       .  S
C1797      C1798   1.402       .  A
C1797      C1802   1.404       .  A
C1797      H1804   1.085       .  S
C1798      C1799   1.415       .  A
C1799      C1800   1.400       .  A
C1799      C1806   1.509       .  S
C1800      C1801   1.407       .  A
C1800      H1805   1.084       .  S
C1801      C1802   1.421       .  A
C1802      C1803   1.508       .  S
C1803      H1807   1.111       .  S
C1803      H1808   1.110       .  S
C1803      H1809   1.106       .  S
C1806      H1810   1.110       .  S
C1806      H1811   1.107       .  S
C1806      H1812   1.111       .  S
C1813      C1814   1.400       .  A
C1813      C1818   1.407       .  A
C1813      H1820   1.084       .  S
C1814      C1815   1.408       .  A
C1815      C1816   1.403       .  A
C1815      C1822   1.507       .  S
C1816      C1817   1.409       .  A
C1816      H1821   1.084       .  S
C1817      C1818   1.423       .  A
C1818      C1819   1.509       .  S
C1819      H1823   1.111       .  S
C1819      H1824   1.111       .  S
C1819      H1825   1.110       .  S
C1822      H1826   1.110       .  S
C1822      H1827   1.110       .  S
C1822      H1828   1.111       .  S
C1829      C1830   1.399       .  A
C1829      C1834   1.405       .  A
C1829      H1836   1.085       .  S
C1830      C1831   1.407       .  A
C1831      C1832   1.405       .  A
C1831      C1838   1.507       .  S
C1832      C1833   1.413       .  A
C1832      H1837   1.083       .  S
C1833      C1834   1.425       .  A
C1834      C1835   1.510       .  S
C1835      H1839   1.111       .  S
C1835      H1840   1.110       .  S
C1835      H1841   1.110       .  S
C1838      H1842   1.110       .  S
C1838      H1843   1.110       .  S
C1838      H1844   1.111       .  S
C1845      C1846   1.404       .  A
C1845      C1850   1.400       .  A
C1845      H1852   1.085       .  S
C1846      C1847   1.417       .  A
C1847      C1848   1.404       .  A
C1847      C1854   1.509       .  S
C1848      C1849   1.404       .  A
C1848      H1853   1.084       .  S
C1849      C1850   1.416       .  A
C1850      C1851   1.509       .  S
C1851      H1855   1.110       .  S
C1851      H1856   1.110       .  S
C1851      H1857   1.107       .  S
C1854      H1858   1.107       .  S
C1854      H1859   1.110       .  S
C1854      H1860   1.111       .  S
C1861      C1862   1.401       .  A
C1861      C1866   1.405       .  A
C1861      H1868   1.084       .  S
C1862      C1863   1.412       .  A
C1863      C1864   1.406       .  A
C1863      C1870   1.507       .  S
C1864      C1865   1.407       .  A
C1864      H1869   1.084       .  S
C1865      C1866   1.421       .  A
C1866      C1867   1.509       .  S
C1867      H1871   1.111       .  S
C1867      H1872   1.110       .  S
C1867      H1873   1.109       .  S
C1870      H1874   1.111       .  S
C1870      H1875   1.109       .  S
C1870      H1876   1.111       .  S
C1877      C1878   1.410       .  A
C1877      C1882   1.404       .  A
C1877      H1884   1.084       .  S
C1878      C1879   1.420       .  A
C1879      C1880   1.407       .  A
C1879      C1886   1.508       .  S
C1880      C1881   1.401       .  A
C1880      H1885   1.084       .  S
C1881      C1882   1.409       .  A
C1882      C1883   1.508       .  S
C1883      H1887   1.111       .  S
C1883      H1888   1.111       .  S
C1883      H1889   1.109       .  S
C1886      H1890   1.110       .  S
C1886      H1891   1.110       .  S
C1886      H1892   1.111       .  S
C1893      C1894   1.406       .  A
C1893      C1898   1.401       .  A
C1893      H1900   1.084       .  S
C1894      C1895   1.416       .  A
C1895      C1896   1.402       .  A
C1895      C1902   1.508       .  S
C1896      C1897   1.405       .  A
C1896      H1901   1.084       .  S
C1897      C1898   1.415       .  A
C1898      C1899   1.510       .  S
C1899      H1903   1.111       .  S
C1899      H1904   1.111       .  S
C1899      H1905   1.106       .  S
C1902      H1906   1.107       .  S
C1902      H1907   1.110       .  S
C1902      H1908   1.110       .  S
C1909      C1910   1.398       .  A
C1909      C1914   1.401       .  A
C1909      H1916   1.085       .  S
C1910      C1911   1.406       .  A
C1911      C1912   1.403       .  A
C1911      C1918   1.507       .  S
C1912      C1913   1.412       .  A
C1912      H1917   1.083       .  S
C1913      C1914   1.424       .  A
C1914      C1915   1.510       .  S
C1915      H1919   1.111       .  S
C1915      H1920   1.110       .  S
C1915      H1921   1.110       .  S
C1918      H1922   1.110       .  S
C1918      H1923   1.110       .  S
C1918      H1924   1.111       .  S
C1925      C1926   1.400       .  A
C1925      C1930   1.404       .  A
C1925      H1932   1.084       .  S
C1926      C1927   1.409       .  A
C1927      C1928   1.403       .  A
C1927      C1934   1.507       .  S
C1928      C1929   1.408       .  A
C1928      H1933   1.084       .  S
C1929      C1930   1.419       .  A
C1930      C1931   1.508       .  S
C1931      H1935   1.111       .  S
C1931      H1936   1.111       .  S
C1931      H1937   1.108       .  S
C1934      H1938   1.111       .  S
C1934      H1939   1.109       .  S
C1934      H1940   1.111       .  S
C1941      C1942   1.402       .  A
C1941      C1946   1.402       .  A
C1941      H1948   1.084       .  S
C1942      C1943   1.416       .  A
C1943      C1944   1.400       .  A
C1943      C1950   1.509       .  S
C1944      C1945   1.403       .  A
C1944      H1949   1.085       .  S
C1945      C1946   1.417       .  A
C1946      C1947   1.509       .  S
C1947      H1951   1.111       .  S
C1947      H1952   1.110       .  S
C1947      H1953   1.107       .  S
C1950      H1954   1.107       .  S
C1950      H1955   1.110       .  S
C1950      H1956   1.111       .  S
