geometry optimzed in LAMMPS
_audit_creation_date              2020-12-01 
_audit_creation_method            'lammps2cif' 
_symmetry_space_group_name_H-M    'P1' 
_symmetry_Int_Tables_number       1 
_symmetry_cell_setting            triclinic 
loop_ 
_symmetry_equiv_pos_as_xyz 
  x,y,z 
_cell_length_a                    29.35183531 
_cell_length_b                    29.4492305254193 
_cell_length_c                    29.296103006882618 
_cell_angle_alpha                 89.9307070835785 
_cell_angle_beta                  89.95791608512457 
_cell_angle_gamma                 90.06543537184089 
loop_ 
_atom_site_label 
_atom_site_type_symbol 
_atom_site_fract_x 
_atom_site_fract_y 
_atom_site_fract_z 
_atom_site_charge 
C1          C  0.43359000  0.59932947  0.86709908     0.43900
N2          N  0.44444052  0.55906351  0.92678765     0.02800
C3          C  0.63530708  0.56059493  0.06523918    -0.05100
H4          H  0.66913663  0.54025103  0.89212626     0.08300
C5          C  0.57732897  0.39621319  0.89305409    -0.05400
Co6        Co  0.52635283  0.58887809  0.97930624     0.74200
N7          N  0.60927025  0.55395013  0.93249354    -0.24600
Co8        Co  0.60685519  0.50298114  0.98090194     0.74100
C9          C  0.61899528  0.41246961  0.87157235     0.44000
N10         N  0.47051276  0.42658782  0.92677117     0.02400
N11         N  0.60496407  0.45341027  0.93012615     0.02500
N12         N  0.58102829  0.61530219  0.06386482    -0.45500
H13         H  0.49537591  0.64494870  0.88292828     0.08300
N14         N  0.57841719  0.58645977  0.93142936     0.02800
N15         N  0.60245317  0.45205050  0.02977494     0.02500
C16         C  0.61612966  0.40736468  0.08564268     0.44100
N17         N  0.43957722  0.45902190  0.92730841    -0.24100
C18         C  0.46789879  0.61775987  0.06225158    -0.05000
N19         N  0.41772079  0.56333174  0.89068629    -0.45200
N20         N  0.63101594  0.44501580  0.06397641    -0.45400
C21         C  0.42583830  0.60202067  0.08328614     0.43900
N22         N  0.57527139  0.58556214  0.03054793     0.02800
N23         N  0.43809900  0.45840801  0.02572803    -0.24100
N24         N  0.47730057  0.58966631  0.92791799    -0.24600
N25         N  0.46896471  0.42582240  0.02632788     0.02400
H26         H  0.37873468  0.47182904  0.06702714     0.08300
H27         H  0.55391525  0.36258682  0.06886482     0.08400
N28         N  0.60631215  0.55312463  0.03078020    -0.24600
N29         N  0.57137872  0.42361244  0.92884551    -0.24200
N30         N  0.44119856  0.55937829  0.02643624     0.02800
C31         C  0.62419177  0.60257541  0.87723777     0.44200
C32         C  0.40961643  0.45172062  0.89377107    -0.05500
N33         N  0.56969250  0.42142509  0.02790938    -0.24200
H34         H  0.55546092  0.36810371  0.88378984     0.08300
N35         N  0.58590385  0.61627325  0.89853072    -0.45500
H36         H  0.37990262  0.47217144  0.88645533     0.08300
C37         C  0.42441603  0.40995162  0.08153095     0.44000
C38         C  0.47296678  0.61709453  0.89165581    -0.05000
Co39       Co  0.43976115  0.50912938  0.97663194     0.73800
N40         N  0.46354381  0.39669891  0.89376189    -0.45200
C41         C  0.61823676  0.60163908  0.08697569     0.44300
N42         N  0.41089197  0.56586642  0.05932054    -0.45200
Co43       Co  0.52013757  0.42329312  0.97741434     0.73900
C44         C  0.57553638  0.39153628  0.06183902    -0.05500
C45         C  0.63988947  0.56131462  0.89951227    -0.05100
N46         N  0.47458161  0.58936565  0.02734478    -0.24600
N47         N  0.63456602  0.44780086  0.89643778    -0.45400
H48         H  0.66475715  0.54017394  0.07358328     0.08300
C49         C  0.40814459  0.45107823  0.05934079    -0.05500
Cl50       Cl  0.52329844  0.50608217  0.97862725    -0.48500
C51         C  0.42579629  0.41067988  0.87161551     0.44100
H52         H  0.48943220  0.64619603  0.07122395     0.08300
N53         N  0.46215493  0.39604692  0.05946607    -0.45200
C54         C  0.42129159  0.89193787  0.56536901     0.43900
N55         N  0.46031951  0.95272696  0.55783809     0.02800
C56         C  0.46620748  0.09143190  0.36756220    -0.05100
H57         H  0.49265850  0.91835410  0.33523854     0.08300
C58         C  0.63296559  0.92539689  0.43269799    -0.05400
Co59       Co  0.43397027  0.00507948  0.47473634     0.74200
N60         N  0.47465893  0.95898443  0.39384823    -0.24600
Co61       Co  0.52429173  0.00913835  0.39918832     0.74100
C62         C  0.61901488  0.90384173  0.39026279     0.44000
N63         N  0.59519534  0.95556165  0.53805062     0.02400
N64         N  0.57549790  0.96058145  0.40306607     0.02500
N65         N  0.40827752  0.08895561  0.41871937    -0.45500
H66         H  0.37962149  0.90676919  0.50050494     0.08300
N67         N  0.43970825  0.95801871  0.42219092     0.02800
N68         N  0.57318298  0.05969002  0.40706762     0.02500
C69         C  0.61370224  0.11951247  0.39774451     0.44100
N70         N  0.56054702  0.95383649  0.56668996    -0.24100
C71         C  0.40037676  0.08588815  0.53370618    -0.05000
N72         N  0.45498804  0.91666200  0.58420654    -0.45200
N73         N  0.57929558  0.09497540  0.37980209    -0.45400
C74         C  0.41357903  0.10580664  0.57719948     0.43900
N75         N  0.43862276  0.05663411  0.42647323     0.02800
N76         N  0.55955176  0.05285892  0.57104783    -0.24100
N77         N  0.43200339  0.95319851  0.52288604    -0.24600
N78         N  0.59407112  0.05387890  0.54220917     0.02400
H79         H  0.54276160  0.09353166  0.63005706     0.08300
H80         H  0.65621026  0.10426253  0.46213399     0.08400
N81         N  0.47276727  0.05743219  0.39714975    -0.24600
N82         N  0.60401354  0.96006153  0.43779925    -0.24200
N83         N  0.45859237  0.05109131  0.56220326     0.02800
C84         C  0.42705457  0.90344760  0.37587467     0.44200
C85         C  0.56516012  0.91723905  0.59342062    -0.05500
N86         N  0.60184149  0.05922879  0.44173514    -0.24200
H87         H  0.66030554  0.91667716  0.45576325     0.08300
N88         N  0.41019256  0.92546103  0.41246186    -0.45500
H89         H  0.54216868  0.90718915  0.62045508     0.08300
C90         C  0.60789540  0.10812955  0.58835743     0.44000
C91         C  0.40579596  0.91594175  0.52471753    -0.05000
Co92       Co  0.50959124  0.00271419  0.56564980     0.73800
N93         N  0.62417157  0.92165703  0.54376493    -0.45200
C94         C  0.42362331  0.11218679  0.38209921     0.44300
N95         N  0.44973575  0.08256318  0.59311073    -0.45200
Co96       Co  0.59990809  0.00722849  0.48997586     0.73900
C97         C  0.62896365  0.09583644  0.43882055    -0.05500
C98         C  0.46984558  0.92543784  0.36335447    -0.05100
N99         N  0.43010924  0.05210166  0.52738453    -0.24600
N100        N  0.58335381  0.92748333  0.37357137    -0.45400
H101        H  0.48813729  0.09995755  0.33912034     0.08300
C102        C  0.56506629  0.08637156  0.60158510    -0.05500
Cl103      Cl  0.51688836  0.00610663  0.48239263    -0.48500
C104        C  0.60721802  0.89598913  0.57792978     0.44100
H105        H  0.37249859  0.09454169  0.51123153     0.08300
N106        N  0.62387756  0.08615260  0.55149339    -0.45200
C107        C  0.91093813  0.59895404  0.56838496     0.43900
N108        N  0.96965886  0.55785084  0.55674829     0.02800
C109        C  0.10301687  0.56021808  0.36250923    -0.05100
H110        H  0.92582448  0.53226895  0.33751030     0.08300
C111        C  0.94385055  0.38692935  0.42349207    -0.05400
Co112      Co  0.02000778  0.58810245  0.47353200     0.74200
N113        N  0.97028110  0.54971449  0.39353951    -0.24600
Co114      Co  0.02156543  0.50105220  0.39455762     0.74100
C115        C  0.92154748  0.40187183  0.38174681     0.44000
N116        N  0.97387719  0.42393354  0.53202457     0.02400
N117        N  0.97421449  0.44899959  0.39812943     0.02500
N118        N  0.10249805  0.61572146  0.41601205    -0.45500
H119        H  0.92607701  0.64379850  0.50584518     0.08300
N120        N  0.97035282  0.58353770  0.42305636     0.02800
N121        N  0.07309175  0.45289261  0.39847365     0.02500
C122        C  0.13259388  0.41346200  0.38567744     0.44100
N123        N  0.97269638  0.45684857  0.56258013    -0.24100
C124        C  0.10528978  0.61768179  0.52901834    -0.05000
N125        N  0.93431293  0.56287203  0.58440895    -0.45200
N126        N  0.10697167  0.44766375  0.36918613    -0.45400
C127        C  0.12889658  0.60057233  0.56920171     0.43900
N128        N  0.06957103  0.58577416  0.42301925     0.02800
N129        N  0.07090479  0.46005503  0.56407473    -0.24100
N130        N  0.97034588  0.58822718  0.52362367    -0.24600
N131        N  0.07287677  0.42738589  0.53342949     0.02400
H132        H  0.11016737  0.47468280  0.62453651     0.08300
H133        H  0.12121858  0.36945055  0.44965602     0.08400
N134        N  0.06932784  0.55296686  0.39242405    -0.24600
N135        N  0.97593036  0.41841609  0.43100103    -0.24200
N136        N  0.06969300  0.55991872  0.55765601     0.02800
C137        C  0.91201707  0.59581090  0.38121979     0.44200
C138        C  0.93897912  0.44838419  0.59220582    -0.05500
N139        N  0.07464642  0.42355349  0.43254131    -0.24200
H140        H  0.93724913  0.35740091  0.44449866     0.08300
N141        N  0.93621531  0.61211887  0.41667921    -0.45500
H142        H  0.93015924  0.46895442  0.62146586     0.08300
C143        C  0.12705116  0.41279834  0.57959902     0.44000
C144        C  0.93467976  0.61593169  0.52830779    -0.05000
Co145      Co  0.02056872  0.50897174  0.56143724     0.73800
N146        N  0.94192758  0.39289262  0.53868051    -0.45200
C147        C  0.12488015  0.60165687  0.37839959     0.44300
N148        N  0.10518435  0.56465803  0.58509222    -0.45200
Co149      Co  0.02438896  0.42231042  0.48228026     0.73900
C150        C  0.11138319  0.39717992  0.42750317    -0.05500
C151        C  0.93441008  0.55442079  0.36564393    -0.05100
N152        N  0.06936306  0.59003545  0.52424192    -0.24600
N153        N  0.94189459  0.44053122  0.36794811    -0.45400
H154        H  0.11121676  0.53894379  0.33356172     0.08300
C155        C  0.10385266  0.45368263  0.59493985    -0.05500
Cl156      Cl  0.02153809  0.50508490  0.47795318    -0.48500
C157        C  0.91875150  0.40613069  0.57606447     0.44100
H158        H  0.11459089  0.64511632  0.50623351     0.08300
N159        N  0.10608826  0.39821048  0.54144772    -0.45200
C160        C  0.76268611  0.32363457  0.29872942     0.04600
C161        C  0.74282353  0.34209922  0.25942449    -0.11600
C162        C  0.69926153  0.32851647  0.24554061     0.02100
C163        C  0.67599656  0.29540866  0.27098241    -0.10100
C164        C  0.69678563  0.27416629  0.30855092     0.04600
C165        C  0.74016284  0.28878392  0.32234895    -0.09500
H166        H  0.76126791  0.36742004  0.23988715     0.10200
H167        H  0.64158586  0.28614833  0.26142289     0.07700
H168        H  0.75631017  0.27343617  0.35175658     0.07500
C169        C  0.75235237  0.68256629  0.30623252     0.04600
C170        C  0.73317248  0.72120377  0.32664825    -0.11600
C171        C  0.69416614  0.74190482  0.30814229     0.02100
C172        C  0.67444495  0.72319748  0.26870899    -0.10100
C173        C  0.69400644  0.68546476  0.24717744     0.04600
C174        C  0.73275815  0.66531055  0.26627099    -0.09500
H175        H  0.74883965  0.73523239  0.35690663     0.10200
H176        H  0.64399989  0.73819092  0.25440383     0.07700
H177        H  0.74777938  0.63599969  0.24983514     0.07500
C178        C  0.70327590  0.32704460  0.71605659     0.04600
C179        C  0.68476554  0.28575494  0.70122466    -0.11600
C180        C  0.70112089  0.26430776  0.66183777     0.02100
C181        C  0.73957657  0.28239035  0.63963302    -0.10100
C182        C  0.76046959  0.32213888  0.65590336     0.04600
C183        C  0.74093621  0.34515521  0.69299300    -0.09500
H184        H  0.65707176  0.27041792  0.72024016     0.10200
H185        H  0.75327598  0.26560721  0.60981293     0.07700
H186        H  0.75485859  0.37757221  0.70352397     0.07500
C187        C  0.34141691  0.74579528  0.29605763     0.04600
C188        C  0.30274287  0.72630523  0.31659642    -0.11600
C189        C  0.28404732  0.68572441  0.29960437     0.02100
C190        C  0.30505266  0.66427884  0.26246651    -0.10100
C191        C  0.34242072  0.68416516  0.24059415     0.04600
C192        C  0.36011574  0.72514790  0.25720571    -0.09500
H193        H  0.28740137  0.74254345  0.34593089     0.10200
H194        H  0.29250247  0.63172649  0.25067581     0.07700
H195        H  0.38855630  0.74102913  0.23978393     0.07500
C196        C  0.36525270  0.71657872  0.63216553     0.04600
C197        C  0.32465565  0.69850736  0.61484183    -0.11600
C198        C  0.30250055  0.66253620  0.63715189     0.02100
C199        C  0.32179417  0.64430908  0.67701814    -0.10100
C200        C  0.36333805  0.66103340  0.69386871     0.04600
C201        C  0.38551604  0.69616410  0.67028667    -0.09500
H202        H  0.30913011  0.71385276  0.58509955     0.10200
H203        H  0.30343236  0.61856100  0.69604557     0.07700
H204        H  0.41772178  0.70911009  0.68284487     0.07500
C205        C  0.33739107  0.32047708  0.72192577     0.04600
C206        C  0.29881558  0.34069840  0.70242608    -0.11600
C207        C  0.27594706  0.31976368  0.66610508     0.02100
C208        C  0.29221602  0.27839092  0.64922495    -0.10100
C209        C  0.33232216  0.25931660  0.66647617     0.04600
C210        C  0.35433570  0.28001007  0.70342553    -0.09500
H211        H  0.28738147  0.37342397  0.71480682     0.10200
H212        H  0.27419916  0.26138240  0.62185904     0.07700
H213        H  0.38501758  0.26501996  0.71731159     0.07500
C214        C  0.69510034  0.67832455  0.71068213     0.04600
C215        C  0.67628459  0.71788717  0.69199825    -0.11600
C216        C  0.69011183  0.73360952  0.64911938     0.02100
C217        C  0.72463354  0.71061799  0.62562080    -0.10100
C218        C  0.74631886  0.67293960  0.64537076     0.04600
C219        C  0.73044493  0.65626687  0.68734110    -0.09500
H220        H  0.65091497  0.73677198  0.71096995     0.10200
H221        H  0.73499830  0.72246837  0.59216427     0.07700
H222        H  0.74610191  0.62651318  0.70220906     0.07500
C223        C  0.33634049  0.26424648  0.29425162     0.04600
C224        C  0.29750902  0.28526010  0.31241925    -0.11600
C225        C  0.28191891  0.32657245  0.29476904     0.02100
C226        C  0.30342605  0.34568887  0.25676196    -0.10100
C227        C  0.34084237  0.32402995  0.23661299     0.04600
C228        C  0.35762869  0.28378983  0.25597448    -0.09500
H229        H  0.27956787  0.26993597  0.34086238     0.10200
H230        H  0.29170528  0.37803772  0.24358049     0.07700
H231        H  0.38765893  0.26812850  0.24150456     0.07500
C232        C  0.20231448  0.36252462  0.67067289     0.25000
C233        C  0.23675130  0.34238564  0.64409141    -0.23100
C234        C  0.23418453  0.34516482  0.59614712     0.19900
C235        C  0.19798997  0.36760197  0.57533604     0.25000
C236        C  0.16453644  0.38879802  0.60196498    -0.23000
C237        C  0.16680072  0.38610631  0.64974917     0.19900
F238        F  0.13383979  0.40489452  0.67618920    -0.13000
F239        F  0.20247179  0.35856291  0.71686028    -0.15300
F240        F  0.19646948  0.36992260  0.52906583    -0.15300
F241        F  0.26747408  0.32754710  0.56929389    -0.13000
C242        C  0.18200363  0.66267611  0.59071135     0.25000
C243        C  0.17285737  0.61608542  0.58731443    -0.23100
C244        C  0.20612938  0.58456486  0.60079710     0.19900
C245        C  0.24842432  0.59955498  0.61678972     0.25000
C246        C  0.25765676  0.64634201  0.62046101    -0.23000
C247        C  0.22369838  0.67772397  0.60780320     0.19900
F248        F  0.23030150  0.72306046  0.61309164    -0.13000
F249        F  0.14996158  0.69372541  0.57881640    -0.15300
F250        F  0.28076455  0.56835054  0.62741720    -0.15300
F251        F  0.19833005  0.53927151  0.59684503    -0.13000
C252        C  0.16948421  0.62735823  0.31092187     0.25000
C253        C  0.16472903  0.62435203  0.35846739    -0.23100
C254        C  0.19870740  0.64239395  0.38683960     0.19900
C255        C  0.23770064  0.66210570  0.36788980     0.25000
C256        C  0.24257046  0.66541266  0.32017102    -0.23000
C257        C  0.20768384  0.64830562  0.29191431     0.19900
F258        F  0.21010635  0.65249312  0.24579567    -0.13000
F259        F  0.13654311  0.61111586  0.28277967    -0.15300
F260        F  0.27139899  0.67626085  0.39623527    -0.15300
F261        F  0.19506416  0.63916909  0.43294340    -0.13000
C262        C  0.20557188  0.36384106  0.29273047     0.25000
C263        C  0.24431557  0.35062108  0.31749312    -0.23100
C264        C  0.24694268  0.36009364  0.36443815     0.19900
C265        C  0.21060543  0.38103814  0.38665650     0.25000
C266        C  0.17158488  0.39343421  0.36204465    -0.23000
C267        C  0.16946380  0.38533700  0.31489136     0.19900
F268        F  0.13157842  0.39635120  0.29073803    -0.13000
F269        F  0.20205902  0.35449796  0.24749353    -0.15300
F270        F  0.21389671  0.39006185  0.43197125    -0.15300
F271        F  0.28501519  0.34962243  0.38856661    -0.13000
C272        C  0.82181597  0.68219061  0.60689575     0.25000
C273        C  0.78759093  0.65322431  0.62399773    -0.23100
C274        C  0.79461919  0.60586400  0.62283974     0.19900
C275        C  0.83536640  0.58811147  0.60579737     0.25000
C276        C  0.86889991  0.61726032  0.58816424    -0.23000
C277        C  0.86168356  0.66432440  0.58853463     0.19900
F278        F  0.89410130  0.69333579  0.57282379    -0.13000
F279        F  0.81768016  0.72803387  0.60957784    -0.15300
F280        F  0.84148182  0.54240662  0.60530626    -0.15300
F281        F  0.76182779  0.57666586  0.63737384    -0.13000
C282        C  0.80693266  0.34400700  0.58693660     0.25000
C283        C  0.80267518  0.34014245  0.63468424    -0.23100
C284        C  0.83876052  0.35509311  0.66260935     0.19900
C285        C  0.87674821  0.37630768  0.64346292     0.25000
C286        C  0.88011063  0.38147902  0.59600785    -0.23000
C287        C  0.84576932  0.36389926  0.56777285     0.19900
F288        F  0.84877633  0.36806412  0.52169623    -0.13000
F289        F  0.77274302  0.33054262  0.55884807    -0.15300
F290        F  0.91066693  0.39103053  0.67127991    -0.15300
F291        F  0.83738058  0.34889065  0.70854364    -0.13000
C292        C  0.87935865  0.33424281  0.35286195     0.25000
C293        C  0.88217829  0.38139983  0.35908174    -0.23100
C294        C  0.84692821  0.40940075  0.34349681     0.19900
C295        C  0.80850185  0.39055547  0.32315013     0.25000
C296        C  0.80514800  0.34327370  0.31717322    -0.23000
C297        C  0.84125453  0.31527895  0.33151962     0.19900
F298        F  0.83981913  0.26974252  0.32444988    -0.13000
F299        F  0.91387891  0.30674236  0.36648788    -0.15300
F300        F  0.77367130  0.41844814  0.31117719    -0.15300
F301        F  0.84875845  0.45495600  0.34996761    -0.13000
C302        C  0.83451459  0.59157896  0.34653940     0.25000
C303        C  0.87124321  0.61776239  0.36220748    -0.23100
C304        C  0.86862946  0.66530552  0.36008748     0.19900
C305        C  0.83028937  0.68640334  0.34153535     0.25000
C306        C  0.79311657  0.66030355  0.32616080    -0.23000
C307        C  0.79549964  0.61258605  0.32936710     0.19900
F308        F  0.75963533  0.58616521  0.31696515    -0.13000
F309        F  0.83562032  0.54564529  0.34937814    -0.15300
F310        F  0.83029609  0.73231235  0.33728682    -0.15300
F311        F  0.90392661  0.69140460  0.37456144    -0.13000
C312        C  0.60640209  0.18383530  0.62628380     0.25000
C313        C  0.63126517  0.14688899  0.60943623    -0.23100
C314        C  0.67911161  0.14823840  0.61024114     0.19900
C315        C  0.70188570  0.18592548  0.62790631     0.25000
C316        C  0.67718860  0.22363646  0.64385625    -0.23000
C317        C  0.62909562  0.22224809  0.64252323     0.19900
F318        F  0.60389142  0.25872978  0.65530020    -0.13000
F319        F  0.56015882  0.18376594  0.62493999    -0.15300
F320        F  0.74806943  0.18499070  0.63018345    -0.15300
F321        F  0.70393809  0.11258670  0.59464550    -0.13000
C322        C  0.38810132  0.14509599  0.64789314     0.25000
C323        C  0.39267057  0.14467625  0.60018334    -0.23100
C324        C  0.37739862  0.18182906  0.57447773     0.19900
C325        C  0.35793756  0.21911592  0.59613695     0.25000
C326        C  0.35262058  0.21943786  0.64388781    -0.23000
C327        C  0.36779638  0.18207836  0.66960789     0.19900
F328        F  0.36208774  0.18096637  0.71559361    -0.13000
F329        F  0.40210281  0.10916780  0.67333930    -0.15300
F330        F  0.34565491  0.25554791  0.57048940    -0.15300
F331        F  0.38297234  0.18288833  0.52850521    -0.13000
C332        C  0.35856630  0.22094984  0.36483284     0.25000
C333        C  0.35610708  0.22355435  0.31676491    -0.23100
C334        C  0.37443600  0.18779406  0.29063877     0.19900
C335        C  0.39659297  0.15161350  0.31195542     0.25000
C336        C  0.39920997  0.14952434  0.35972925    -0.23000
C337        C  0.37903208  0.18374397  0.38600312     0.19900
F338        F  0.38112918  0.18231098  0.43225380    -0.13000
F339        F  0.34316351  0.25532102  0.39154600    -0.15300
F340        F  0.41455299  0.11802486  0.28585751    -0.15300
F341        F  0.37046441  0.18739785  0.24446768    -0.13000
C342        C  0.63174914  0.16465280  0.32816344     0.25000
C343        C  0.63373456  0.16002751  0.37584667    -0.23100
C344        C  0.65516168  0.19404288  0.40177864     0.19900
C345        C  0.67456474  0.23186927  0.38022579     0.25000
C346        C  0.67386359  0.23575625  0.33223148    -0.23000
C347        C  0.65217686  0.20162094  0.30656196     0.19900
F348        F  0.65225637  0.20288260  0.26022916    -0.13000
F349        F  0.61153970  0.13237358  0.30201346    -0.15300
F350        F  0.69324357  0.26501470  0.40643948    -0.15300
F351        F  0.65635341  0.19139292  0.44803121    -0.13000
C352        C  0.39742820  0.81176158  0.55096597     0.25000
C353        C  0.40749414  0.84688135  0.58177631    -0.23100
C354        C  0.40572489  0.83841929  0.62883809     0.19900
C355        C  0.39293465  0.79579155  0.64505530     0.25000
C356        C  0.38274440  0.76036817  0.61441442    -0.23000
C357        C  0.38562017  0.76865067  0.56716002     0.19900
F358        F  0.37738614  0.73494139  0.53667070    -0.13000
F359        F  0.40022226  0.81875392  0.50523274    -0.15300
F360        F  0.38843571  0.78993204  0.69081296    -0.15300
F361        F  0.41460259  0.87204483  0.65926568    -0.13000
C362        C  0.67591515  0.84962262  0.59553483     0.25000
C363        C  0.62826384  0.85406597  0.59511420    -0.23100
C364        C  0.60102141  0.81825836  0.61138156     0.19900
C365        C  0.62117610  0.77877750  0.62822956     0.25000
C366        C  0.66888673  0.77465069  0.62951621    -0.23000
C367        C  0.69609914  0.81040452  0.61303088     0.19900
F368        F  0.74224147  0.80807583  0.61540161    -0.13000
F369        F  0.70303437  0.88392386  0.58053190    -0.15300
F370        F  0.59402769  0.74422373  0.64262553    -0.15300
F371        F  0.55486593  0.82081615  0.60980297    -0.13000
C372        C  0.65485363  0.82730663  0.39711286     0.25000
C373        C  0.63794819  0.86250632  0.36955127    -0.23100
C374        C  0.63911728  0.85791228  0.32194256     0.19900
C375        C  0.65814498  0.81929989  0.30202599     0.25000
C376        C  0.67448960  0.78339019  0.32944196    -0.23000
C377        C  0.67207786  0.78777211  0.37733730     0.19900
F378        F  0.68511112  0.75336325  0.40529540    -0.13000
F379        F  0.65323151  0.83030985  0.44333458    -0.15300
F380        F  0.66185338  0.81795937  0.25585524    -0.15300
F381        F  0.62325510  0.89158140  0.29453423    -0.13000
C382        C  0.33689593  0.82434488  0.32958451     0.25000
C383        C  0.36324317  0.78688811  0.31568662    -0.23100
C384        C  0.41094356  0.78866836  0.32114888     0.19900
C385        C  0.43178058  0.82712725  0.33961258     0.25000
C386        C  0.40530747  0.86395270  0.35425806    -0.23000
C387        C  0.35774556  0.86228499  0.34925096     0.19900
F388        F  0.33152970  0.89794644  0.36232905    -0.13000
F389        F  0.29107843  0.82472736  0.32325274    -0.15300
F390        F  0.47772548  0.82748799  0.34500323    -0.15300
F391        F  0.43740482  0.75250558  0.31012284    -0.13000
C392        C  0.65927654  0.41507020  0.15844624     0.25000
C393        C  0.63780562  0.38715397  0.12610328    -0.23100
C394        C  0.63708555  0.33991391  0.13286323     0.19900
C395        C  0.65733825  0.32089271  0.17149742     0.25000
C396        C  0.67810636  0.34882336  0.20442312    -0.23000
C397        C  0.67887123  0.39614835  0.19749728     0.19900
F398        F  0.69747198  0.42427763  0.22911624    -0.13000
F399        F  0.66005946  0.46087022  0.15299525    -0.13100
F400        F  0.65774858  0.27499627  0.17603932    -0.15300
F401        F  0.61820316  0.31189051  0.10133672    -0.13000
C402        C  0.68425779  0.63374235  0.12928137     0.25000
C403        C  0.63737561  0.62519395  0.12660460    -0.23100
C404        C  0.60878117  0.63875606  0.16234729     0.19900
C405        C  0.62691913  0.65879051  0.20144758     0.25000
C406        C  0.67409777  0.66666248  0.20478577    -0.23000
C407        C  0.70244460  0.65495233  0.16777357     0.19900
F408        F  0.74770319  0.66451622  0.16862340    -0.13000
F409        F  0.71227392  0.62249270  0.09418357    -0.15300
F410        F  0.59855077  0.66859495  0.23671406    -0.15300
F411        F  0.56348063  0.63047630  0.16031523    -0.13000
C412        C  0.43073824  0.63549111  0.16082595     0.25000
C413        C  0.40387557  0.62083353  0.12411806    -0.23100
C414        C  0.35638499  0.62560555  0.12631352     0.19900
C415        C  0.33622756  0.64630102  0.16420050     0.25000
C416        C  0.36335337  0.66174630  0.20069068    -0.23000
C417        C  0.41074620  0.65552506  0.19890219     0.19900
F418        F  0.43768019  0.66798607  0.23444018    -0.13000
F419        F  0.47638209  0.62920895  0.16041398    -0.15300
F420        F  0.29041197  0.65261142  0.16453892    -0.15300
F421        F  0.32972599  0.61195660  0.09103881    -0.13000
C422        C  0.43067618  0.36969886  0.15577277     0.25000
C423        C  0.40350572  0.38618249  0.12007083    -0.23100
C424        C  0.35611225  0.38052488  0.12173352     0.19900
C425        C  0.33590107  0.35927092  0.15914634     0.25000
C426        C  0.36277962  0.34420696  0.19593447    -0.23000
C427        C  0.41043710  0.34939213  0.19380092     0.19900
F428        F  0.43728756  0.33651485  0.22923511    -0.13000
F429        F  0.47663605  0.37504213  0.15471079    -0.15300
F430        F  0.29007076  0.35286768  0.15912421    -0.15300
F431        F  0.32946859  0.39454103  0.08656534    -0.13000
C432        C  0.68986384  0.62413396  0.82801653     0.25000
C433        C  0.64270820  0.62340111  0.83584956    -0.23100
C434        C  0.61299153  0.64156691  0.80318547     0.19900
C435        C  0.63002911  0.65884742  0.76237155     0.25000
C436        C  0.67735830  0.65999390  0.75428353    -0.23000
C437        C  0.70716172  0.64297220  0.78788234     0.19900
F438        F  0.75305087  0.64534972  0.78247299    -0.13000
F439        F  0.71931435  0.60771692  0.85970918    -0.15300
F440        F  0.59994997  0.67287169  0.73011738    -0.15300
F441        F  0.56719398  0.64078084  0.80984576    -0.13000
C442        C  0.68860709  0.39279031  0.82662159     0.25000
C443        C  0.64094065  0.39377005  0.83056033    -0.23100
C444        C  0.61412350  0.37506070  0.79566651     0.19900
C445        C  0.63447307  0.35476934  0.75793699     0.25000
C446        C  0.68221315  0.35150727  0.75489159    -0.23000
C447        C  0.70915788  0.37119783  0.78942925     0.19900
F448        F  0.75527975  0.36794126  0.78828533    -0.13000
F449        F  0.71532181  0.41083188  0.85979821    -0.15300
F450        F  0.60728733  0.33880752  0.72404494    -0.15300
F451        F  0.56801696  0.37713932  0.79750960    -0.13000
C452        C  0.42937784  0.37009151  0.79744518     0.25000
C453        C  0.40358075  0.38612490  0.83430410    -0.23100
C454        C  0.35623352  0.37951697  0.83481647     0.19900
C455        C  0.33485500  0.35736773  0.79863164     0.25000
C456        C  0.36044498  0.34236227  0.76093560    -0.23000
C457        C  0.40795667  0.34887016  0.76067700     0.19900
F458        F  0.43344376  0.33623468  0.72414661    -0.13000
F459        F  0.47507766  0.37676568  0.79616511    -0.15300
F460        F  0.28923121  0.34989183  0.80078589    -0.15300
F461        F  0.33081302  0.39344942  0.87091434    -0.13000
C462        C  0.39635653  0.67627328  0.77126446     0.25000
C463        C  0.38161782  0.64481303  0.73816518    -0.23100
C464        C  0.38364171  0.59811708  0.74824075     0.19900
C465        C  0.39995186  0.58328575  0.79054724     0.25000
C466        C  0.41548514  0.61483224  0.82298750    -0.23000
C467        C  0.41366732  0.66135626  0.81298751     0.19900
F468        F  0.42700698  0.69257299  0.84433761    -0.13000
F469        F  0.39261752  0.72164745  0.76395226    -0.15300
F470        F  0.40183662  0.53802072  0.79925545    -0.15300
F471        F  0.37081118  0.56679202  0.71678406    -0.13000
loop_ 
_geom_bond_atom_site_label_1 
_geom_bond_atom_site_label_2 
_geom_bond_distance 
_geom_bond_site_symmetry_2 
_ccdc_geom_bond_type 
C1           N19   1.347       .  A
C1           C38   1.459       .  S
C1          C466   1.470       .  S
N2           N19   1.323       .  A
N2           N24   1.320       .  A
N2          Co39   2.075       .  S
C3           N28   1.339       .  A
C3           C41   1.456       .  S
C3           H48   1.082       .  S
H4           C45   1.082       .  S
C5           N29   1.335       .  A
C5            C9   1.455       .  S
C5           H34   1.082       .  S
Co6          N24   2.084       .  S
Co6          N14   2.075       .  S
Co6          N46   2.070   1_556  S
Co6          N22   2.080   1_556  S
Co6         Cl50   2.440       .  S
N7           C45   1.336       .  A
N7           N14   1.319       .  A
N7           Co8   2.065       .  S
Co8          N11   2.086       .  S
Co8          N28   2.079   1_556  S
Co8          N15   2.076   1_556  S
Co8         Cl50   2.455       .  S
C9           N47   1.350       .  A
C9          C443   1.471       .  S
N10          N17   1.319       .  A
N10          N40   1.324       .  A
N10         Co43   2.082       .  S
N11          N29   1.320       .  A
N11          N47   1.325       .  A
N12          C41   1.347       .  A
N12          N22   1.323       .  A
H13          C38   1.081       .  S
N14          N35   1.321       .  A
N15          N33   1.319       .  A
N15          N20   1.323       .  A
C16          N20   1.349       .  A
C16          C44   1.457       .  S
C16         C393   1.471       .  S
N17          C32   1.337       .  A
N17         Co39   2.067       .  S
C18          N46   1.336       .  A
C18          C21   1.455       .  S
C18          H52   1.081       .  S
C21          N42   1.349       .  A
C21         C413   1.468       .  S
N22          N28   1.321       .  A
N23          C49   1.337       .  A
N23          N25   1.321       .  A
N23         Co39   2.073   1_554  S
N24          C38   1.340       .  A
N25          N53   1.322       .  A
N25         Co43   2.077   1_554  S
H26          C49   1.082       .  S
H27          C44   1.082       .  S
N29         Co43   2.070       .  S
N30          N42   1.325       .  A
N30          N46   1.319       .  A
N30         Co39   2.080   1_554  S
C31          N35   1.347       .  A
C31          C45   1.454       .  S
C31         C433   1.462       .  S
C32          C51   1.453       .  S
C32          H36   1.082       .  S
N33          C44   1.338       .  A
N33         Co43   2.076   1_554  S
C37          N53   1.347       .  A
C37          C49   1.455       .  S
C37         C423   1.462       .  S
Co39        Cl50   2.454       .  S
N40          C51   1.349       .  A
C41         C403   1.465       .  S
Co43        Cl50   2.440       .  S
C51         C453   1.465       .  S
C54          N72   1.346       .  A
C54          C91   1.458       .  S
C54         C353   1.467       .  S
N55          N72   1.322       .  A
N55          N77   1.319       .  A
N55         Co92   2.075   1_565  S
C56          N81   1.338       .  A
C56          C94   1.456       .  S
C56         H101   1.082       .  S
H57          C98   1.082       .  S
C58          N82   1.337       .  A
C58          C62   1.455       .  S
C58          H87   1.080       .  S
Co59         N77   2.079   1_545  S
Co59         N67   2.079   1_545  S
Co59         N99   2.077       .  S
Co59         N75   2.078       .  S
Co59       Cl103   2.444       .  S
N60          C98   1.340       .  A
N60          N67   1.320       .  A
N60         Co61   2.079   1_565  S
Co61         N64   2.079   1_545  S
Co61         N81   2.078       .  S
Co61         N68   2.080       .  S
Co61       Cl103   2.449       .  S
C62         N100   1.349       .  A
C62         C373   1.470       .  S
N63          N70   1.319       .  A
N63          N93   1.323       .  A
N63         Co96   2.077   1_565  S
N64          N82   1.318       .  A
N64         N100   1.324       .  A
N65          C94   1.349       .  A
N65          N75   1.324       .  A
H66          C91   1.080       .  S
N67          N88   1.323       .  A
N68          N86   1.319       .  A
N68          N73   1.322       .  A
C69          N73   1.348       .  A
C69          C97   1.461       .  S
C69         C343   1.475       .  S
N70          C85   1.339       .  A
N70         Co92   2.077   1_565  S
C71          N99   1.337       .  A
C71          C74   1.456       .  S
C71         H105   1.081       .  S
C74          N95   1.347       .  A
C74         C323   1.464       .  S
N75          N81   1.320       .  A
N76         C102   1.343       .  A
N76          N78   1.319       .  A
N76         Co92   2.086       .  S
N77          C91   1.340       .  A
N78         N106   1.320       .  A
N78         Co96   2.065       .  S
H79         C102   1.081       .  S
H80          C97   1.081       .  S
N82         Co96   2.070   1_565  S
N83          N95   1.322       .  A
N83          N99   1.320       .  A
N83         Co92   2.070       .  S
C84          N88   1.347       .  A
C84          C98   1.459       .  S
C84         C386   1.470       .  S
C85         C104   1.457       .  S
C85          H89   1.081       .  S
N86          C97   1.342       .  A
N86         Co96   2.083       .  S
C90         N106   1.344       .  A
C90         C102   1.462       .  S
C90         C313   1.468       .  S
Co92       Cl103   2.450       .  S
N93         C104   1.348       .  A
C94         C336   1.467       .  S
Co96       Cl103   2.447       .  S
C104        C363   1.470       .  S
C107        N125   1.349       .  A
C107        C144   1.453       .  S
C107        C276   1.466       .  S
N108        N125   1.324       .  A
N108        N130   1.319       .  A
N108       Co145   2.081   1_655  S
C109        N134   1.338       .  A
C109        C147   1.455       .  S
C109        H154   1.082       .  S
H110        C151   1.081       .  S
C111        N135   1.339       .  A
C111        C115   1.455       .  S
C111        H140   1.082       .  S
Co112       N130   2.068   1_455  S
Co112       N120   2.081   1_455  S
Co112       N152   2.077       .  S
Co112       N128   2.076       .  S
Co112      Cl156   2.449       .  S
N113        C151   1.341       .  A
N113        N120   1.320       .  A
N113       Co114   2.080   1_655  S
Co114       N117   2.070   1_455  S
Co114       N134   2.074       .  S
Co114       N121   2.078       .  S
Co114      Cl156   2.446       .  S
C115        N153   1.347       .  A
C115        C293   1.463       .  S
N116        N123   1.321       .  A
N116        N146   1.323       .  A
N116       Co149   2.079   1_655  S
N117        N135   1.319       .  A
N117        N153   1.321       .  A
N118        C147   1.348       .  A
N118        N128   1.323       .  A
H119        C144   1.082       .  S
N120        N141   1.323       .  A
N121        N139   1.320       .  A
N121        N126   1.322       .  A
C122        N126   1.347       .  A
C122        C150   1.455       .  S
C122        C266   1.462       .  S
N123        C138   1.339       .  A
N123       Co145   2.080   1_655  S
C124        N152   1.339       .  A
C124        C127   1.456       .  S
C124        H158   1.082       .  S
C127        N148   1.348       .  A
C127        C243   1.468       .  S
N128        N134   1.319       .  A
N129        C155   1.338       .  A
N129        N131   1.318       .  A
N129       Co145   2.066       .  S
N130        C144   1.335       .  A
N131        N159   1.321       .  A
N131       Co149   2.073       .  S
H132        C155   1.082       .  S
H133        C150   1.082       .  S
N135       Co149   2.073   1_655  S
N136        N148   1.324       .  A
N136        N152   1.320       .  A
N136       Co145   2.082       .  S
C137        N141   1.348       .  A
C137        C151   1.459       .  S
C137        C303   1.470       .  S
C138        C157   1.458       .  S
C138        H142   1.082       .  S
N139        C150   1.338       .  A
N139       Co149   2.073       .  S
C143        N159   1.347       .  A
C143        C155   1.455       .  S
C143        C236   1.463       .  S
Co145      Cl156   2.449       .  S
N146        C157   1.347       .  A
C147        C253   1.467       .  S
Co149      Cl156   2.442       .  S
C157        C286   1.467       .  S
C160        C296   1.476       .  S
C160        C161   1.401       .  A
C160        C165   1.402       .  A
C161        H166   1.084       .  S
C161        C162   1.400       .  A
C162        C396   1.481       .  S
C162        C163   1.403       .  A
C163        H167   1.083       .  S
C163        C164   1.405       .  A
C164        C346   1.486       .  S
C164        C165   1.403       .  A
C165        H168   1.082       .  S
C169        C306   1.485       .  S
C169        C170   1.404       .  A
C169        C174   1.400       .  A
C170        H175   1.081       .  S
C170        C171   1.406       .  A
C171        C376   1.489       .  S
C171        C172   1.405       .  A
C172        H176   1.082       .  S
C172        C173   1.402       .  A
C173        C406   1.481       .  S
C173        C174   1.400       .  A
C174        H177   1.083       .  S
C178        C446   1.482       .  S
C178        C179   1.401       .  A
C178        C183   1.400       .  A
C179        H184   1.083       .  S
C179        C180   1.401       .  A
C180        C316   1.485       .  S
C180        C181   1.406       .  A
C181        H185   1.082       .  S
C181        C182   1.405       .  A
C182        C283   1.483       .  S
C182        C183   1.404       .  A
C183        H186   1.083       .  S
C187        C383   1.485       .  S
C187        C188   1.406       .  A
C187        C192   1.403       .  A
C188        H193   1.082       .  S
C188        C189   1.406       .  A
C189        C256   1.483       .  S
C189        C190   1.402       .  A
C190        H194   1.084       .  S
C190        C191   1.398       .  A
C191        C416   1.477       .  S
C191        C192   1.401       .  A
C192        H195   1.084       .  S
C196        C356   1.481       .  S
C196        C197   1.400       .  A
C196        C201   1.401       .  A
C197        H202   1.082       .  S
C197        C198   1.403       .  A
C198        C246   1.483       .  S
C198        C199   1.405       .  A
C199        H203   1.083       .  S
C199        C200   1.405       .  A
C200        C463   1.483       .  S
C200        C201   1.403       .  A
C201        H204   1.084       .  S
C205        C456   1.477       .  S
C205        C206   1.402       .  A
C205        C210   1.401       .  A
C206        H211   1.084       .  S
C206        C207   1.402       .  A
C207        C233   1.478       .  S
C207        C208   1.400       .  A
C208        H212   1.084       .  S
C208        C209   1.399       .  A
C209        C326   1.475       .  S
C209        C210   1.401       .  A
C210        H213   1.083       .  S
C214        C436   1.480       .  S
C214        C215   1.401       .  A
C214        C219   1.403       .  A
C215        H220   1.083       .  S
C215        C216   1.398       .  A
C216        C366   1.476       .  S
C216        C217   1.400       .  A
C217        H221   1.083       .  S
C217        C218   1.404       .  A
C218        C273   1.483       .  S
C218        C219   1.403       .  A
C219        H222   1.081       .  S
C223        C333   1.486       .  S
C223        C224   1.402       .  A
C223        C228   1.406       .  A
C224        H229   1.083       .  S
C224        C225   1.399       .  A
C225        C263   1.471       .  S
C225        C226   1.397       .  A
C226        H230   1.084       .  S
C226        C227   1.401       .  A
C227        C426   1.478       .  S
C227        C228   1.403       .  A
C228        H231   1.082       .  S
C232        C233   1.408       .  A
C232        C237   1.395       .  A
C232        F239   1.358       .  S
C233        C234   1.409       .  A
C234        C235   1.392       .  A
C234        F241   1.358       .  S
C235        C236   1.401       .  A
C235        F240   1.358       .  S
C236        C237   1.404       .  A
C237        F238   1.358       .  S
C242        C243   1.401       .  A
C242        C247   1.395       .  A
C242        F249   1.358       .  S
C243        C244   1.405       .  A
C244        C245   1.398       .  A
C244        F251   1.358       .  S
C245        C246   1.408       .  A
C245        F250   1.358       .  S
C246        C247   1.410       .  A
C247        F248   1.358       .  S
C252        C253   1.402       .  A
C252        C257   1.394       .  A
C252        F259   1.358       .  S
C253        C254   1.403       .  A
C254        C255   1.397       .  A
C254        F261   1.358       .  S
C255        C256   1.408       .  A
C255        F260   1.357       .  S
C256        C257   1.410       .  A
C257        F258   1.358       .  S
C262        C263   1.404       .  A
C262        C267   1.395       .  A
C262        F269   1.358       .  S
C263        C264   1.406       .  A
C264        C265   1.394       .  A
C264        F271   1.358       .  S
C265        C266   1.402       .  A
C265        F270   1.358       .  S
C266        C267   1.404       .  A
C267        F268   1.358       .  S
C272        C273   1.409       .  A
C272        C277   1.392       .  A
C272        F279   1.358       .  S
C273        C274   1.411       .  A
C274        C275   1.398       .  A
C274        F281   1.358       .  S
C275        C276   1.403       .  A
C275        F280   1.358       .  S
C276        C277   1.402       .  A
C277        F278   1.358       .  S
C282        C283   1.409       .  A
C282        C287   1.398       .  A
C282        F289   1.357       .  S
C283        C284   1.409       .  A
C284        C285   1.395       .  A
C284        F291   1.358       .  S
C285        C286   1.402       .  A
C285        F290   1.358       .  S
C286        C287   1.403       .  A
C287        F288   1.358       .  S
C292        C293   1.403       .  A
C292        C297   1.398       .  A
C292        F299   1.358       .  S
C293        C294   1.400       .  A
C294        C295   1.391       .  A
C294        F301   1.356       .  S
C295        C296   1.407       .  A
C295        F300   1.358       .  S
C296        C297   1.408       .  A
C297        F298   1.358       .  S
C302        C303   1.403       .  A
C302        C307   1.396       .  A
C302        F309   1.356       .  S
C303        C304   1.404       .  A
C304        C305   1.396       .  A
C304        F311   1.358       .  S
C305        C306   1.408       .  A
C305        F310   1.358       .  S
C306        C307   1.410       .  A
C307        F308   1.358       .  S
C312        C313   1.401       .  A
C312        C317   1.396       .  A
C312        F319   1.358       .  S
C313        C314   1.405       .  A
C314        C315   1.395       .  A
C314        F321   1.358       .  S
C315        C316   1.407       .  A
C315        F320   1.358       .  S
C316        C317   1.413       .  A
C317        F318   1.358       .  S
C322        C323   1.404       .  A
C322        C327   1.396       .  A
C322        F329   1.358       .  S
C323        C324   1.402       .  A
C324        C325   1.392       .  A
C324        F331   1.357       .  S
C325        C326   1.408       .  A
C325        F330   1.358       .  S
C326        C327   1.406       .  A
C327        F328   1.358       .  S
C332        C333   1.412       .  A
C332        C337   1.395       .  A
C332        F339   1.358       .  S
C333        C334   1.410       .  A
C334        C335   1.396       .  A
C334        F341   1.358       .  S
C335        C336   1.403       .  A
C335        F340   1.358       .  S
C336        C337   1.400       .  A
C337        F338   1.357       .  S
C342        C343   1.405       .  A
C342        C347   1.393       .  A
C342        F349   1.358       .  S
C343        C344   1.406       .  A
C344        C345   1.400       .  A
C344        F351   1.358       .  S
C345        C346   1.411       .  A
C345        F350   1.358       .  S
C346        C347   1.408       .  A
C347        F348   1.358       .  S
C352        C353   1.405       .  A
C352        C357   1.398       .  A
C352        F359   1.358       .  S
C353        C354   1.402       .  A
C354        C355   1.393       .  A
C354        F361   1.358       .  S
C355        C356   1.409       .  A
C355        F360   1.358       .  S
C356        C357   1.408       .  A
C357        F358   1.358       .  S
C362        C363   1.405       .  A
C362        C367   1.396       .  A
C362        F369   1.358       .  S
C363        C364   1.405       .  A
C364        C365   1.395       .  A
C364        F371   1.358       .  S
C365        C366   1.406       .  A
C365        F370   1.358       .  S
C366        C367   1.406       .  A
C367        F368   1.358       .  S
C372        C373   1.404       .  A
C372        C377   1.396       .  A
C372        F379   1.358       .  S
C373        C374   1.402       .  A
C374        C375   1.396       .  A
C374        F381   1.358       .  S
C375        C376   1.412       .  A
C375        F380   1.358       .  S
C376        C377   1.411       .  A
C377        F378   1.358       .  S
C382        C383   1.408       .  A
C382        C387   1.398       .  A
C382        F389   1.358       .  S
C383        C384   1.410       .  A
C384        C385   1.396       .  A
C384        F391   1.358       .  S
C385        C386   1.402       .  A
C385        F390   1.358       .  S
C386        C387   1.405       .  A
C387        F388   1.358       .  S
C392        C393   1.404       .  A
C392        C397   1.397       .  A
C392        F399   1.358       .  S
C393        C394   1.405       .  A
C394        C395   1.396       .  A
C394        F401   1.358       .  S
C395        C396   1.407       .  A
C395        F400   1.358       .  S
C396        C397   1.408       .  A
C397        F398   1.358       .  S
C402        C403   1.401       .  A
C402        C407   1.396       .  A
C402        F409   1.358       .  S
C403        C404   1.400       .  A
C404        C405   1.395       .  A
C404        F411   1.353       .  S
C405        C406   1.407       .  A
C405        F410   1.358       .  S
C406        C407   1.410       .  A
C407        F408   1.358       .  S
C412        C413   1.402       .  A
C412        C417   1.392       .  A
C412        F419   1.353       .  S
C413        C414   1.403       .  A
C414        C415   1.398       .  A
C414        F421   1.358       .  S
C415        C416   1.409       .  A
C415        F420   1.358       .  S
C416        C417   1.404       .  A
C417        F418   1.358       .  S
C422        C423   1.402       .  A
C422        C427   1.396       .  A
C422        F429   1.358       .  S
C423        C424   1.402       .  A
C424        C425   1.393       .  A
C424        F431   1.358       .  S
C425        C426   1.408       .  A
C425        F430   1.358       .  S
C426        C427   1.408       .  A
C427        F428   1.358       .  S
C432        C433   1.403       .  A
C432        C437   1.395       .  A
C432        F439   1.358       .  S
C433        C434   1.401       .  A
C434        C435   1.391       .  A
C434        F441   1.358       .  S
C435        C436   1.409       .  A
C435        F440   1.358       .  S
C436        C437   1.409       .  A
C437        F438   1.358       .  S
C442        C443   1.404       .  A
C442        C447   1.399       .  A
C442        F449   1.358       .  S
C443        C444   1.403       .  A
C444        C445   1.392       .  A
C444        F451   1.356       .  S
C445        C446   1.407       .  A
C445        F450   1.358       .  S
C446        C447   1.410       .  A
C447        F448   1.358       .  S
C452        C453   1.401       .  A
C452        C457   1.396       .  A
C452        F459   1.356       .  S
C453        C454   1.403       .  A
C454        C455   1.395       .  A
C454        F461   1.358       .  S
C455        C456   1.407       .  A
C455        F460   1.358       .  S
C456        C457   1.407       .  A
C457        F458   1.358       .  S
C462        C463   1.410       .  A
C462        C467   1.395       .  A
C462        F469   1.358       .  S
C463        C464   1.407       .  A
C464        C465   1.399       .  A
C464        F471   1.358       .  S
C465        C466   1.406       .  A
C465        F470   1.358       .  S
C466        C467   1.402       .  A
C467        F468   1.358       .  S
