geometry optimzed in LAMMPS
_audit_creation_date              2020-11-30 
_audit_creation_method            'lammps2cif' 
_symmetry_space_group_name_H-M    'P1' 
_symmetry_Int_Tables_number       1 
_symmetry_cell_setting            triclinic 
loop_ 
_symmetry_equiv_pos_as_xyz 
  x,y,z 
_cell_length_a                    37.627628346617165 
_cell_length_b                    37.7811644316137 
_cell_length_c                    37.75432008065341 
_cell_angle_alpha                 90.04421784898094 
_cell_angle_beta                  90.15356144905999 
_cell_angle_gamma                 89.85887325025057 
loop_ 
_atom_site_label 
_atom_site_type_symbol 
_atom_site_fract_x 
_atom_site_fract_y 
_atom_site_fract_z 
_atom_site_charge 
C1          C  0.72458060  0.72292619  0.67766649     0.03350
C2          C  0.74045278  0.69315640  0.69322513    -0.12800
C3          C  0.72501513  0.67737721  0.72299820     0.00850
C4          C  0.69398318  0.69179540  0.73759842    -0.11330
C5          C  0.67828559  0.72183476  0.72237164     0.03340
C6          C  0.69346179  0.73720705  0.69223470    -0.10750
H7          H  0.76398707  0.68152885  0.68142236     0.08940
H8          H  0.68170463  0.67926983  0.76029553     0.06460
H9          H  0.68080803  0.75986408  0.67985073     0.06310
C10         C  0.72318625  0.34285325  0.67756134     0.03350
C11         C  0.73798058  0.37344792  0.69253570    -0.12800
C12         C  0.72329796  0.38809344  0.72335437     0.00850
C13         C  0.69345392  0.37239131  0.73885869    -0.11330
C14         C  0.67830173  0.34212968  0.72364541     0.03340
C15         C  0.69337222  0.32721926  0.69318571    -0.10750
H16         H  0.76055209  0.38604287  0.68002491     0.08940
H17         H  0.68141771  0.38430022  0.76206380     0.06460
H18         H  0.68127590  0.30416920  0.68105212     0.06310
C19         C  0.34146815  0.34286139  0.67812591     0.03350
C20         C  0.32607898  0.37287720  0.69362789    -0.12800
C21         C  0.34169690  0.38836685  0.72355596     0.00850
C22         C  0.37256039  0.37352321  0.73825189    -0.11330
C23         C  0.38777542  0.34321260  0.72307712     0.03340
C24         C  0.37229293  0.32802241  0.69289390    -0.10750
H25         H  0.30270369  0.38484066  0.68173659     0.08940
H26         H  0.38504796  0.38588084  0.76101170     0.06460
H27         H  0.38458317  0.30517333  0.68053204     0.06310
C28         C  0.38764104  0.72350025  0.72360958     0.03350
C29         C  0.37235821  0.73812272  0.69305604    -0.12800
C30         C  0.34228738  0.72248973  0.67774467     0.00850
C31         C  0.32747721  0.69215071  0.69307528    -0.11330
C32         C  0.34250197  0.67764742  0.72385092     0.03340
C33         C  0.37257907  0.69337674  0.73908331    -0.10750
H34         H  0.38440538  0.76101669  0.68068031     0.08940
H35         H  0.30470798  0.67955093  0.68078725     0.06460
H36         H  0.38484367  0.68160367  0.76228452     0.06310
C37         C  0.38708044  0.72358368  0.34276377     0.03350
C38         C  0.37152125  0.73814911  0.37316045    -0.12800
C39         C  0.34131502  0.72246167  0.38799735     0.00850
C40         C  0.32670999  0.69211219  0.37239084    -0.11330
C41         C  0.34213221  0.67756824  0.34190281     0.03340
C42         C  0.37228113  0.69336952  0.32710006    -0.10750
H43         H  0.38339814  0.76107585  0.38573448     0.08940
H44         H  0.30388405  0.67943235  0.38434987     0.06460
H45         H  0.38477551  0.68161336  0.30405906     0.06310
C46         C  0.72285351  0.72416557  0.38847354     0.03350
C47         C  0.69255085  0.73900341  0.37270442    -0.12800
C48         C  0.67748222  0.72322832  0.34263367     0.00850
C49         C  0.69284520  0.69262396  0.32825905    -0.11330
C50         C  0.72322688  0.67779315  0.34390217     0.03340
C51         C  0.73818527  0.69357235  0.37402911    -0.10750
H52         H  0.68017561  0.76217918  0.38435803     0.08940
H53         H  0.68077358  0.67997782  0.30543401     0.06460
H54         H  0.76119545  0.68164908  0.38664236     0.06310
C55         C  0.67808631  0.34313280  0.34185233     0.03350
C56         C  0.69355612  0.37292695  0.32612981    -0.12800
C57         C  0.72381660  0.38840737  0.34125763     0.00850
C58         C  0.73883433  0.37380740  0.37196460    -0.11330
C59         C  0.72355820  0.34391676  0.38766475     0.03340
C60         C  0.69308217  0.32870364  0.37267114    -0.10750
H61         H  0.68141550  0.38470884  0.30286910     0.08940
H62         H  0.76180982  0.38618868  0.38409798     0.06460
H63         H  0.68070961  0.30612538  0.38529836     0.06310
N64         N  0.76629273  0.46003570  0.77085327    -0.27070
N65         N  0.74692879  0.47793419  0.74766927    -0.34930
C66         C  0.72900388  0.45502513  0.72709527     0.01270
C67         C  0.73747119  0.42117591  0.73792513     0.07300
C68         C  0.76105122  0.42515960  0.76574774    -0.05800
H69         H  0.71097750  0.46248044  0.70599483     0.07960
H70         H  0.77356806  0.40433377  0.78101123     0.09160
Cu71       Cu  0.74546297  0.53261730  0.74498545     0.44170
Cu72       Cu  0.79972718  0.48420297  0.80735075     0.41990
Cu73       Cu  0.80855241  0.58008403  0.79856113     0.43880
N74         N  0.74861839  0.58726629  0.74636954    -0.34460
N75         N  0.77218610  0.60484526  0.76550850    -0.28710
C76         C  0.76749967  0.63979042  0.76027533    -0.04810
C77         C  0.73953827  0.64414825  0.73690660     0.07400
C78         C  0.72817067  0.61046186  0.72859252     0.01200
H79         H  0.78310066  0.66039237  0.77269184     0.08850
H80         H  0.70678136  0.60331590  0.71078438     0.07930
N81         N  0.83867892  0.54931447  0.83277117    -0.35910
N82         N  0.83447014  0.51483703  0.83712707    -0.28090
C83         C  0.85699581  0.50353695  0.86245865    -0.03330
C84         C  0.87663688  0.53217201  0.87415905     0.05290
C85         C  0.86430903  0.56074208  0.85481267     0.03380
H86         H  0.85931985  0.47638413  0.87126817     0.08480
H87         H  0.87279294  0.58799165  0.85708113     0.07320
N88         N  0.29443607  0.46084421  0.76591928    -0.27070
N89         N  0.31797168  0.47846542  0.74693270    -0.34930
C90         C  0.33856366  0.45530342  0.72933944     0.01270
C91         C  0.32736088  0.42158928  0.73766088     0.07300
C92         C  0.29929712  0.42590625  0.76077640    -0.05800
H93         H  0.35987565  0.46249179  0.71158146     0.07960
H94         H  0.28367021  0.40527734  0.77299965     0.09160
Cu95       Cu  0.32080707  0.53312673  0.74546693     0.44170
Cu96       Cu  0.25775470  0.48553767  0.79855720     0.41990
Cu97       Cu  0.26586452  0.58148557  0.80720629     0.43880
N98         N  0.31913494  0.58780687  0.74817842    -0.34460
N99         N  0.29950640  0.60569824  0.77107486    -0.28710
C100        C  0.30467137  0.64058461  0.76598412    -0.04810
C101        C  0.32851705  0.64457078  0.73851311     0.07400
C102        C  0.33716942  0.61071891  0.72783738     0.01200
H103        H  0.29190473  0.66141483  0.78099911     0.08850
H104        H  0.35534171  0.60326395  0.70694625     0.07930
N105        N  0.23126492  0.55070436  0.83685744    -0.35910
N106        N  0.22732421  0.51618014  0.83253838    -0.28090
C107        C  0.20187147  0.50459821  0.85456025    -0.03330
C108        C  0.18937078  0.53310799  0.87387829     0.05290
C109        C  0.20873857  0.56187718  0.86215452     0.03380
H110        H  0.19368702  0.47727072  0.85689778     0.08480
H111        H  0.20628182  0.58902057  0.87098700     0.07320
N112        N  0.76776543  0.46085444  0.29574155    -0.27070
N113        N  0.74727442  0.47849028  0.31808409    -0.34930
C114        C  0.72862070  0.45533660  0.33756371     0.01270
C115        C  0.73777346  0.42161188  0.32690466     0.07300
C116        C  0.76260695  0.42590282  0.30038134    -0.05800
H117        H  0.70978807  0.46253900  0.35795612     0.07960
H118        H  0.77601700  0.40524642  0.28568583     0.09160
Cu119      Cu  0.74530566  0.53315664  0.32138753     0.44170
Cu120      Cu  0.80201046  0.48544493  0.26049869     0.41990
Cu121      Cu  0.80465195  0.58182006  0.26503810     0.43880
N122        N  0.74760001  0.58788342  0.32027109    -0.34460
N123        N  0.76952453  0.60583802  0.29974126    -0.28710
C124        C  0.76440041  0.64069936  0.30505822    -0.04810
C125        C  0.73800892  0.64464556  0.33008969     0.07400
C126        C  0.72788765  0.61077936  0.33918546     0.01200
H127        H  0.77863189  0.66153549  0.29155750     0.08850
H128        H  0.70764440  0.60331911  0.35803822     0.07930
N129        N  0.83571187  0.55171433  0.23121062    -0.35910
N130        N  0.83457351  0.51681211  0.22927259    -0.28090
C131        C  0.85783040  0.50581862  0.20461446    -0.03330
C132        C  0.87444019  0.53519557  0.19015943     0.05290
C133        C  0.85973700  0.56382308  0.20792966     0.03380
H134        H  0.86212191  0.47836932  0.19764227     0.08480
H135        H  0.86634929  0.59146886  0.20495661     0.07320
N136        N  0.29977377  0.60507100  0.29472730    -0.27070
N137        N  0.31939143  0.58744520  0.31790011    -0.34930
C138        C  0.33728533  0.61060116  0.33820974     0.01270
C139        C  0.32853202  0.64432132  0.32719934     0.07300
C140        C  0.30477052  0.64001683  0.29958817    -0.05800
H141        H  0.35535565  0.60340637  0.35936309     0.07960
H142        H  0.29191337  0.66066089  0.28435621     0.09160
Cu143      Cu  0.32093439  0.53279140  0.32107770     0.44170
Cu144      Cu  0.26644045  0.58036195  0.25859485     0.41990
Cu145      Cu  0.25809644  0.48446046  0.26750631     0.43880
N146        N  0.31775169  0.47812730  0.32035606    -0.34460
N147        N  0.29433048  0.46028371  0.30126968    -0.28710
C148        C  0.29912377  0.42541488  0.30690332    -0.04810
C149        C  0.32695531  0.42136949  0.33049982     0.07400
C150        C  0.33817990  0.45517742  0.33849889     0.01200
H151        H  0.28374012  0.40462827  0.29452553     0.08850
H152        H  0.35952872  0.46257504  0.35625049     0.07930
N153        N  0.22851044  0.51489073  0.23241526    -0.35910
N154        N  0.23257633  0.54940665  0.22825249    -0.28090
C155        C  0.21066289  0.56064221  0.20240488    -0.03330
C156        C  0.19174180  0.53188319  0.18984602     0.05290
C157        C  0.20355652  0.50336204  0.20962116     0.03380
H158        H  0.20819855  0.58788480  0.19392386     0.08480
H159        H  0.19507729  0.47612018  0.20722714     0.07320
O160        O  0.06997576  0.50269655  0.99449165    -0.72720
O161        O  0.99608626  0.50379821  0.07085610    -0.73710
O162        O  0.99451506  0.50360087  0.99610900    -0.62320
O163        O  0.07100641  0.50289586  0.07016089    -0.70730
O164        O  0.07132297  0.56170420  0.07041647    -0.70290
O165        O  0.99687444  0.56231828  0.99419226    -0.61540
O166        O  0.99562152  0.56244543  0.06964776    -0.74050
O167        O  0.07223579  0.56143572  0.99588032    -0.72830
Cu168      Cu  0.03292334  0.50119477  0.03287236     1.04560
Cu169      Cu  0.03398239  0.56404521  0.03253917     1.04330
C170        C  0.08300694  0.53187441  0.98345432     0.93470
C171        C  0.98399950  0.53327219  0.08225971     0.92610
C172        C  0.98376582  0.53306081  0.98340524     0.84760
C173        C  0.08296676  0.53217634  0.08215225     0.91030
N174        N  0.46052541  0.76899565  0.76745827    -0.27070
N175        N  0.47817971  0.74727306  0.74633649    -0.34930
C176        C  0.45487224  0.72784169  0.72763702     0.01270
C177        C  0.42103911  0.73783406  0.73750624     0.07300
C178        C  0.42541941  0.76394842  0.76274227    -0.05800
H179        H  0.46204215  0.70791748  0.70831843     0.07960
H180        H  0.40472252  0.77817210  0.77664259     0.09160
Cu181      Cu  0.53306546  0.74460663  0.74379706     0.44170
Cu182      Cu  0.48523990  0.80411872  0.80180102     0.41990
Cu183      Cu  0.58196680  0.80019482  0.80415654     0.43880
N184        N  0.58801068  0.74584223  0.74618338    -0.34460
N185        N  0.60605132  0.76597930  0.76851510    -0.28710
C186        C  0.64104965  0.76057115  0.76352734    -0.04810
C187        C  0.64499306  0.73594541  0.73676861     0.07400
C188        C  0.61097649  0.72713081  0.72633590     0.01200
H189        H  0.66198986  0.77365732  0.77817887     0.08850
H190        H  0.60345574  0.70847722  0.70590826     0.07930
N191        N  0.55167922  0.83375900  0.83547083    -0.35910
N192        N  0.51661728  0.83548249  0.83435469    -0.28090
C193        C  0.50547905  0.86008857  0.85757037    -0.03330
C194        C  0.53491992  0.87475951  0.87417142     0.05290
C195        C  0.56375008  0.85713823  0.85948245     0.03380
H196        H  0.47788106  0.86691283  0.86179545     0.08480
H197        H  0.59152114  0.86032471  0.86603775     0.07320
N198        N  0.60581404  0.29723312  0.76819710    -0.27070
N199        N  0.58795707  0.31862911  0.74687065    -0.34930
C200        C  0.61109176  0.33779613  0.72783924     0.01270
C201        C  0.64501880  0.32794055  0.73773124     0.07300
C202        C  0.64087145  0.30221474  0.76332475    -0.05800
H203        H  0.60374937  0.35743741  0.70828786     0.07960
H204        H  0.66168712  0.28819388  0.77734380     0.09160
Cu205      Cu  0.53303438  0.32092310  0.74461803     0.44170
Cu206      Cu  0.58132691  0.26253999  0.80281672     0.41990
Cu207      Cu  0.48445202  0.26302075  0.80333129     0.43880
N208        N  0.47811508  0.31899257  0.74682964    -0.34460
N209        N  0.46019257  0.29788480  0.76822994    -0.28710
C210        C  0.42515471  0.30319195  0.76312202    -0.04810
C211        C  0.42108586  0.32881364  0.73733403     0.07400
C212        C  0.45505262  0.33826867  0.72756077     0.01200
H213        H  0.40427489  0.28946350  0.77712394     0.08850
H214        H  0.46248155  0.35771941  0.70792783     0.07930
N215        N  0.51554481  0.23096322  0.83568927    -0.35910
N216        N  0.55066756  0.23086198  0.83539466    -0.28090
C217        C  0.56260988  0.20725804  0.85925138    -0.03330
C218        C  0.53364123  0.19173504  0.87564532     0.05290
C219        C  0.50423787  0.20737298  0.85979724     0.03380
H220        H  0.59041839  0.20146673  0.86359434     0.08480
H221        H  0.47657630  0.20224060  0.86553225     0.07320
N222        N  0.45937758  0.76940512  0.29878231    -0.27070
N223        N  0.47733553  0.74744289  0.31944046    -0.34930
C224        C  0.45430618  0.72795663  0.33828278     0.01270
C225        C  0.42032715  0.73822776  0.32901761     0.07300
C226        C  0.42434878  0.76449066  0.30393871    -0.05800
H227        H  0.46175669  0.70775389  0.35721116     0.07960
H228        H  0.40345607  0.77880076  0.29033272     0.09160
Cu229      Cu  0.53224532  0.74473381  0.32096742     0.44170
Cu230      Cu  0.48370285  0.80443971  0.26429920     0.41990
Cu231      Cu  0.58053618  0.80229896  0.26180229     0.43880
N232        N  0.58712921  0.74659353  0.31840829    -0.34460
N233        N  0.60495777  0.76761704  0.29685385    -0.28710
C234        C  0.64001807  0.76253183  0.30199301    -0.04810
C235        C  0.64418228  0.73710681  0.32794047     0.07400
C236        C  0.61027334  0.72756874  0.33780466     0.01200
H237        H  0.66083256  0.77636326  0.28799591     0.08850
H238        H  0.60294080  0.70834131  0.35769312     0.07930
N239        N  0.54938541  0.83474238  0.23001211    -0.35910
N240        N  0.51429696  0.83566333  0.23112934    -0.28090
C241        C  0.50238806  0.85953391  0.20751218    -0.03330
C242        C  0.53134996  0.87433243  0.19038555     0.05290
C243        C  0.56070229  0.85797267  0.20558378     0.03380
H244        H  0.47462812  0.86594480  0.20382657     0.08480
H245        H  0.58835110  0.86236084  0.19921424     0.07320
N246        N  0.60531667  0.29919370  0.29611220    -0.27070
N247        N  0.58759242  0.31949969  0.31854450    -0.34930
C248        C  0.61083115  0.33797165  0.33829749     0.01270
C249        C  0.64470900  0.32888686  0.32772357     0.07300
C250        C  0.64040308  0.30433334  0.30092909    -0.05800
H251        H  0.60358038  0.35675266  0.35870002     0.07960
H252        H  0.66115082  0.29115067  0.28611424     0.09160
Cu253      Cu  0.53268584  0.32162588  0.32135625     0.44170
Cu254      Cu  0.58069593  0.26511277  0.26055182     0.41990
Cu255      Cu  0.48416339  0.26043449  0.26650184     0.43880
N256        N  0.47774449  0.31917703  0.31986954    -0.34460
N257        N  0.45984362  0.29637137  0.30016553    -0.28710
C258        C  0.42481506  0.30126754  0.30544629    -0.04810
C259        C  0.42070256  0.32856905  0.32942812     0.07400
C260        C  0.45464980  0.33932119  0.33809511     0.01200
H261        H  0.40397722  0.28617355  0.29272511     0.08850
H262        H  0.46203756  0.36004380  0.35646710     0.07930
N263        N  0.51445748  0.22976113  0.23243834    -0.35910
N264        N  0.54938579  0.23186468  0.22974317    -0.28090
C265        C  0.56043580  0.20898632  0.20477651    -0.03330
C266        C  0.53107190  0.19152382  0.19091548     0.05290
C267        C  0.50240150  0.20541482  0.20941950     0.03380
H268        H  0.58792561  0.20557576  0.19719066     0.08480
H269        H  0.47475099  0.19816914  0.20709579     0.07320
O270        O  0.50348136  0.99478742  0.99548993    -0.72720
O271        O  0.50359871  0.07069015  0.07000427    -0.73710
O272        O  0.50317750  0.06985135  0.99470577    -0.62320
O273        O  0.50379761  0.99540225  0.07045039    -0.70730
O274        O  0.56269711  0.99526379  0.07026547    -0.70290
O275        O  0.56207945  0.07072925  0.99542871    -0.61540
O276        O  0.56245530  0.07023133  0.07051523    -0.74050
O277        O  0.56235386  0.99551048  0.99488982    -0.72830
Cu278      Cu  0.50147338  0.03270031  0.03267814     1.04560
Cu279      Cu  0.56443888  0.03292215  0.03275217     1.04330
C280        C  0.53292410  0.98313449  0.98332471     0.93470
C281        C  0.53304465  0.08239095  0.08224602     0.92610
C282        C  0.53252709  0.08214731  0.98310928     0.84760
C283        C  0.53332161  0.98346413  0.08232340     0.91030
C284        C  0.34141697  0.34160460  0.38871847     0.03350
C285        C  0.32630807  0.37228621  0.37418798    -0.12800
C286        C  0.34167850  0.38821436  0.34444785     0.00850
C287        C  0.37241211  0.37355944  0.32943503    -0.11330
C288        C  0.38739426  0.34270248  0.34373864     0.03710
C289        C  0.37174918  0.32665987  0.37325668    -0.10750
H290        H  0.30319149  0.38420990  0.38650021     0.08940
H291        H  0.38486178  0.38635273  0.30698348     0.06460
H292        H  0.38386968  0.30333877  0.38491645     0.06310
N293        N  0.76671199  0.77070510  0.46055434    -0.27070
N294        N  0.74625696  0.74862852  0.47840623    -0.34930
C295        C  0.72760716  0.72879075  0.45542599     0.01270
C296        C  0.73675233  0.73895730  0.42159156     0.07300
C297        C  0.76154351  0.76555797  0.42563219    -0.05800
H298        H  0.70883978  0.70846099  0.46281840     0.07960
H299        H  0.77497808  0.77990784  0.40483041     0.09160
Cu300      Cu  0.74464398  0.74608025  0.53309498     0.44170
Cu301      Cu  0.80126464  0.80590614  0.48484177     0.41990
Cu302      Cu  0.80673017  0.80036030  0.58126764     0.43880
N303        N  0.74775687  0.74725163  0.58778060    -0.34460
N304        N  0.77087278  0.76668397  0.60562596    -0.28710
C305        C  0.76627195  0.76112614  0.64053341    -0.04810
C306        C  0.73884060  0.73725382  0.64457839     0.07400
C307        C  0.72770470  0.72896746  0.61074860     0.01200
H308        H  0.78159192  0.77363661  0.66132760     0.08850
H309        H  0.70673605  0.71084477  0.60334757     0.07930
N310        N  0.83766704  0.83372123  0.55056697    -0.35910
N311        N  0.83522463  0.83623703  0.51571386    -0.28090
C312        C  0.85829548  0.86082333  0.50432286    -0.03330
C313        C  0.87639259  0.87426275  0.53333803     0.05290
C314        C  0.86247036  0.85650622  0.56222277     0.03380
H315        H  0.86187084  0.86807978  0.47685071     0.08480
H316        H  0.86919262  0.86033051  0.58982605     0.07320
N317        N  0.29563366  0.76679531  0.46029680    -0.27070
N318        N  0.31724187  0.74557619  0.47809319    -0.34930
C319        C  0.33660388  0.72652278  0.45503594     0.01270
C320        C  0.32664044  0.73621933  0.42121588     0.07300
C321        C  0.30067864  0.76178350  0.42535699    -0.05800
H322        H  0.35654863  0.70717647  0.46236609     0.07960
H323        H  0.28666457  0.77581914  0.40460048     0.09160
Cu324      Cu  0.31986855  0.74348887  0.53284264     0.44170
Cu325      Cu  0.26090303  0.80192147  0.48459144     0.41990
Cu326      Cu  0.26425231  0.80434709  0.58107608     0.43880
N327        N  0.31825658  0.74591289  0.58760779    -0.34460
N328        N  0.29808418  0.76840792  0.60540935    -0.28710
C329        C  0.30333863  0.76348039  0.64033860    -0.04810
C330        C  0.32783453  0.73651765  0.64449032     0.07400
C331        C  0.33681390  0.72599048  0.61066738     0.01200
H332        H  0.29033202  0.77839510  0.66108271     0.08850
H333        H  0.35558766  0.70554007  0.60334140     0.07930
N334        N  0.23172048  0.83655727  0.55053332    -0.35910
N335        N  0.23015501  0.83543540  0.51556583    -0.28090
C336        C  0.20604520  0.85922955  0.50425096    -0.03330
C337        C  0.19188859  0.87638646  0.53346664     0.05290
C338        C  0.20875885  0.86114599  0.56236207     0.03380
H339        H  0.19955344  0.86387163  0.47671003     0.08480
H340        H  0.20421079  0.86679759  0.59006380     0.07320
N341        N  0.76534219  0.29556382  0.60501244    -0.27070
N342        N  0.74668519  0.31949119  0.58736535    -0.34930
C343        C  0.72922968  0.34017258  0.61053991     0.01270
C344        C  0.73726199  0.32860959  0.64428282     0.07300
C345        C  0.76007224  0.30024376  0.63995990    -0.05800
H346        H  0.71171868  0.36176698  0.60333435     0.07960
H347        H  0.77201911  0.28429083  0.66060601     0.09160
Cu348      Cu  0.74525826  0.32269073  0.53263079     0.44170
Cu349      Cu  0.79778106  0.25852055  0.58047960     0.41990
Cu350      Cu  0.80502726  0.26554077  0.48445855     0.43880
N351        N  0.74771292  0.32084265  0.47787297    -0.34460
N352        N  0.76983415  0.30020415  0.46011464    -0.28710
C353        C  0.76471431  0.30519353  0.42517173    -0.04810
C354        C  0.73807274  0.33005254  0.42096837     0.07400
C355        C  0.72786753  0.33944973  0.45477263     0.01200
H356        H  0.77913998  0.29160924  0.40444924     0.08850
H357        H  0.70754170  0.35838497  0.46205866     0.07930
N358        N  0.83468446  0.23074928  0.51511152    -0.35910
N359        N  0.83122764  0.22744245  0.54979952    -0.28090
C360        C  0.85359251  0.20213101  0.56134123    -0.03330
C361        C  0.87213262  0.18893087  0.53257008     0.05290
C362        C  0.85958313  0.20785026  0.50373507     0.03380
H363        H  0.85674692  0.19462851  0.58881582     0.08480
H364        H  0.86771055  0.20498904  0.47641387     0.07320
N365        N  0.29950638  0.29406150  0.46101890    -0.27070
N366        N  0.31820882  0.31784300  0.47872295    -0.34930
C367        C  0.33562730  0.33848058  0.45561910     0.01270
C368        C  0.32753236  0.32704557  0.42185585     0.07300
C369        C  0.30468955  0.29881437  0.42607328    -0.05800
H370        H  0.35309432  0.36001762  0.46288357     0.07960
H371        H  0.29263541  0.28303678  0.40537580     0.09160
Cu372      Cu  0.31966902  0.32106923  0.53340742     0.44170
Cu373      Cu  0.26712419  0.25720409  0.48557270     0.41990
Cu374      Cu  0.25946189  0.26495761  0.58162238     0.43880
N375        N  0.31722294  0.31944131  0.58811623    -0.34460
N376        N  0.29488144  0.29923679  0.60593429    -0.28710
C377        C  0.30002134  0.30433921  0.64086209    -0.04810
C378        C  0.32694524  0.32877804  0.64496149     0.07400
C379        C  0.33725351  0.33785427  0.61114030     0.01200
H380        H  0.28541205  0.29112963  0.66163122     0.08850
H381        H  0.35772581  0.35649647  0.60379017     0.07930
N382        N  0.22999087  0.23010951  0.55099883    -0.35910
N383        N  0.23369007  0.22644506  0.51636109    -0.28090
C384        C  0.21151076  0.20102961  0.50490063    -0.03330
C385        C  0.19282204  0.18818495  0.53366117     0.05290
C386        C  0.20508205  0.20738043  0.56240920     0.03380
H387        H  0.20857750  0.19319759  0.47748500     0.08480
H388        H  0.19677437  0.20479639  0.58969584     0.07320
O389        O  0.99620965  0.99478040  0.56206616    -0.72720
O390        O  0.06882830  0.07230296  0.56236579    -0.73710
O391        O  0.99348673  0.06975734  0.56219299    -0.62320
O392        O  0.07150291  0.99714478  0.56218841    -0.70730
O393        O  0.06881876  0.99463028  0.50354113    -0.70290
O394        O  0.99636701  0.07263309  0.50353915    -0.61540
O395        O  0.07171477  0.06955423  0.50369381    -0.74050
O396        O  0.99347965  0.99755463  0.50341428    -0.72830
Cu397      Cu  0.03251681  0.03350824  0.56427523     1.04560
Cu398      Cu  0.03258418  0.03360686  0.50147969     1.04330
C399        C  0.98292214  0.98434482  0.53269535     0.93470
C400        C  0.08216101  0.08271454  0.53309641     0.92610
C401        C  0.98305051  0.08306594  0.53284671     0.84760
C402        C  0.08200630  0.98389410  0.53285333     0.91030
C403        C  0.16478878  0.16085083  0.53356663    -0.05250
C404        C  0.13503258  0.16490538  0.55558100    -0.32680
C405        C  0.10774131  0.13980125  0.55539113     0.36570
C406        C  0.11014016  0.10990406  0.53324234    -0.05600
C407        C  0.13983717  0.10580407  0.51124277    -0.32570
C408        C  0.16722313  0.13079154  0.51155514     0.36480
H409        H  0.13257218  0.18797658  0.57246542     0.16850
O410        O  0.07848306  0.14513204  0.57634752    -0.60070
H411        H  0.14219040  0.08271431  0.49435272     0.16870
O412        O  0.19662574  0.12507496  0.49092031    -0.60170
H413        H  0.21387061  0.11274166  0.50656635     0.43860
H414        H  0.06083434  0.15707752  0.56084129     0.43820
C415        C  0.95506321  0.11041233  0.53281262    -0.05250
C416        C  0.92602925  0.10706399  0.55576970    -0.32680
C417        C  0.89858362  0.13211889  0.55557468     0.36570
C418        C  0.90028134  0.16153645  0.53268794    -0.05600
C419        C  0.92939515  0.16485483  0.50973796    -0.32570
C420        C  0.95673506  0.13966926  0.50980465     0.36480
H421        H  0.92419992  0.08447111  0.57333465     0.16850
O422        O  0.86982126  0.12704855  0.57719936    -0.60070
H423        H  0.93132642  0.18741560  0.49216092     0.16870
O424        O  0.98531904  0.14429750  0.48782486    -0.60170
H425        H  0.00339095  0.15665763  0.50244279     0.43860
H426        H  0.85221374  0.11422479  0.56242631     0.43820
C427        C  0.16396819  0.90415328  0.53357120    -0.05250
C428        C  0.13816733  0.90452825  0.50661064    -0.32680
C429        C  0.11122161  0.93012271  0.50617825     0.36570
C430        C  0.10980754  0.95617432  0.53288964    -0.05600
C431        C  0.13552619  0.95580756  0.55987404    -0.32570
C432        C  0.16262805  0.93037687  0.56017749     0.36480
H433        H  0.13844080  0.88451269  0.48606067     0.16850
O434        O  0.08606807  0.92899558  0.47983766    -0.60070
H435        H  0.13511837  0.97583247  0.58043433     0.16870
O436        O  0.18811068  0.93206902  0.58614367    -0.60170
H437        H  0.20759035  0.94636180  0.57584712     0.43860
H438        H  0.06632195  0.91474013  0.48967908     0.43820
C439        C  0.90391914  0.90223912  0.53333411    -0.05250
C440        C  0.90244468  0.92926644  0.50782712    -0.32680
C441        C  0.92782122  0.95629416  0.50745020     0.36570
C442        C  0.95545107  0.95650645  0.53270223    -0.05600
C443        C  0.95694743  0.92955530  0.55821027    -0.32570
C444        C  0.93175246  0.90238496  0.55844189     0.36480
H445        H  0.88116365  0.92985330  0.48845837     0.16850
O446        O  0.92492975  0.98272909  0.48271625    -0.60070
H447        H  0.97824491  0.92908681  0.57758571     0.16870
O448        O  0.93522291  0.87567264  0.58278016    -0.60170
H449        H  0.94903779  0.85692380  0.57055903     0.43860
H450        H  0.91127581  0.00183441  0.49456561     0.43820
C451        C  0.53100922  0.16362131  0.16299508    -0.05250
C452        C  0.56232512  0.14437373  0.15636025    -0.32680
C453        C  0.56355171  0.11816959  0.13014722     0.36570
C454        C  0.53291404  0.11024705  0.11004137    -0.05600
C455        C  0.50160638  0.12944137  0.11660848    -0.32570
C456        C  0.50044369  0.15588913  0.14262109     0.36480
H457        H  0.58610398  0.14927277  0.17177266     0.16850
O458        O  0.59464497  0.09980406  0.12525073    -0.60070
H459        H  0.47784683  0.12431128  0.10118311     0.16870
O460        O  0.46970423  0.17502107  0.14657623    -0.60170
H461        H  0.45295986  0.15891926  0.15881072     0.43860
H462        H  0.60913545  0.11485632  0.10937245     0.43820
C463        C  0.53143786  0.90215104  0.16254237    -0.05250
C464        C  0.56141148  0.92395186  0.15872359    -0.32680
C465        C  0.56257400  0.95031340  0.13269721     0.36570
C466        C  0.53325029  0.95563692  0.10997927    -0.05600
C467        C  0.50331311  0.93386564  0.11371975    -0.32570
C468        C  0.50224203  0.90729020  0.13953884     0.36480
H469        H  0.58402365  0.92095330  0.17626874     0.16850
O470        O  0.59199504  0.97157358  0.13067257    -0.60070
H471        H  0.48071090  0.93703333  0.09615082     0.16870
O472        O  0.47323989  0.88542082  0.14073904    -0.60170
H473        H  0.45387345  0.89994986  0.15108422     0.43860
H474        H  0.60949521  0.95791245  0.11655956     0.43820
C475        C  0.53371796  0.16383057  0.90335467    -0.05250
C476        C  0.50482746  0.14044925  0.90569987    -0.32680
C477        C  0.50395623  0.11386318  0.93151301     0.36570
C478        C  0.53246484  0.10999966  0.95551571    -0.05600
C479        C  0.56132668  0.13334428  0.95323098    -0.32570
C480        C  0.56209780  0.16011963  0.92760368     0.36480
H481        H  0.48291669  0.14239201  0.88714350     0.16850
O482        O  0.47575541  0.09093401  0.93206565    -0.60070
H483        H  0.58322424  0.13127109  0.97182008     0.16870
O484        O  0.58984562  0.18358909  0.92779458    -0.60170
H485        H  0.61048247  0.17019787  0.91839942     0.43860
H486        H  0.45678990  0.10353578  0.94525098     0.43820
C487        C  0.53495597  0.90257876  0.90209142    -0.05250
C488        C  0.50463349  0.90723492  0.92327985    -0.32680
C489        C  0.50344488  0.93333410  0.94959982     0.36570
C490        C  0.53311012  0.95532175  0.95555725    -0.05600
C491        C  0.56343912  0.95069475  0.93444661    -0.32570
C492        C  0.56454053  0.92477806  0.90790431     0.36480
H493        H  0.48170387  0.89031918  0.91981545     0.16850
O494        O  0.47354708  0.93620117  0.97012174    -0.60070
H495        H  0.58635662  0.96763094  0.93809925     0.16870
O496        O  0.59402410  0.92271058  0.88673296    -0.60170
H497        H  0.61274090  0.91172977  0.90169848     0.43860
H498        H  0.45672462  0.95076766  0.95602387     0.43820
C499        C  0.16422517  0.53176179  0.16189398    -0.05250
C500        C  0.13340554  0.51138991  0.16636167    -0.32680
C501        C  0.10657677  0.51154862  0.14061396     0.36570
C502        C  0.11058851  0.53193219  0.10972375    -0.05600
C503        C  0.14134464  0.55224930  0.10516464    -0.32570
C504        C  0.16824862  0.55199181  0.13081374     0.36480
H505        H  0.12979106  0.49589643  0.19021364     0.16850
O506        O  0.07619525  0.49237269  0.14623141    -0.60070
H507        H  0.14481315  0.56778203  0.08130332     0.16870
O508        O  0.19870475  0.57090993  0.12483213    -0.60170
H509        H  0.21537434  0.55389915  0.11364055     0.43860
H510        H  0.05908842  0.50934006  0.15682882     0.43820
C511        C  0.90252202  0.53535828  0.16252784    -0.05250
C512        C  0.92403863  0.50523959  0.15810882    -0.32680
C513        C  0.95051018  0.50411806  0.13217538     0.36570
C514        C  0.95625982  0.53363968  0.11007831    -0.05600
C515        C  0.93488247  0.56381698  0.11451761    -0.32570
C516        C  0.90819699  0.56485874  0.14032132     0.36480
H517        H  0.92070595  0.48241312  0.17508501     0.16850
O518        O  0.97137062  0.47440616  0.12955960    -0.60070
H519        H  0.93841105  0.58661646  0.09750601     0.16870
O520        O  0.88673928  0.59417798  0.14226104    -0.60170
H521        H  0.90160388  0.61283689  0.15331258     0.43860
H522        H  0.95734614  0.45750205  0.11510327     0.43820
C523        C  0.11060533  0.53159689  0.95594363    -0.05250
C524        C  0.10512856  0.51238889  0.92463562    -0.32680
C525        C  0.13037898  0.51310048  0.89748073     0.36570
C526        C  0.16193708  0.53268586  0.90175985    -0.05600
C527        C  0.16740556  0.55181346  0.93317693    -0.32570
C528        C  0.14209367  0.55117949  0.96026922     0.36480
H529        H  0.08079246  0.49755346  0.92087540     0.16850
O530        O  0.12349855  0.49538508  0.86650116    -0.60070
H531        H  0.19165940  0.56675970  0.93697888     0.16870
O532        O  0.14862292  0.56926773  0.99112234    -0.60170
H533        H  0.15926024  0.55156519  0.00742363     0.43860
H534        H  0.11233158  0.51319386  0.85067655     0.43820
C535        C  0.90430803  0.53238501  0.90190913    -0.05250
C536        C  0.89884032  0.51356269  0.93344811    -0.32680
C537        C  0.92438779  0.51406744  0.96044784     0.36570
C538        C  0.95608589  0.53319257  0.95587839    -0.05600
C539        C  0.96158286  0.55205036  0.92442557    -0.32570
C540        C  0.93609922  0.55147271  0.89737078     0.36480
H541        H  0.87440478  0.49899773  0.93742335     0.16850
O542        O  0.91786174  0.49637869  0.99146865    -0.60070
H543        H  0.98607273  0.56655384  0.92051016     0.16870
O544        O  0.94294011  0.56885709  0.86625817    -0.60170
H545        H  0.95370219  0.55077433  0.85049778     0.43860
H546        H  0.90761385  0.51439136  0.00764835     0.43820
loop_ 
_geom_bond_atom_site_label_1 
_geom_bond_atom_site_label_2 
_geom_bond_distance 
_geom_bond_site_symmetry_2 
_ccdc_geom_bond_type 
C1            C2   1.401       .  A
C1            C6   1.402       .  A
C1          C306   1.465       .  S
C2            C3   1.401       .  A
C2            H7   1.084       .  S
C3            C4   1.401       .  A
C3           C77   1.465       .  S
C4            C5   1.401       .  A
C4            H8   1.084       .  S
C5            C6   1.401       .  A
C5          C187   1.466       .  S
C6            H9   1.084       .  S
C10          C11   1.402       .  A
C10          C15   1.401       .  A
C10         C344   1.466       .  S
C11          C12   1.402       .  A
C11          H16   1.084       .  S
C12          C13   1.401       .  A
C12          C67   1.466       .  S
C13          C14   1.401       .  A
C13          H17   1.084       .  S
C14          C15   1.401       .  A
C14         C201   1.465       .  S
C15          H18   1.084       .  S
C19          C20   1.401       .  A
C19          C24   1.402       .  A
C19         C378   1.465       .  S
C20          C21   1.401       .  A
C20          H25   1.084       .  S
C21          C22   1.402       .  A
C21          C91   1.465       .  S
C22          C23   1.402       .  A
C22          H26   1.084       .  S
C23          C24   1.402       .  A
C23         C211   1.466       .  S
C24          H27   1.084       .  S
C28          C29   1.401       .  A
C28          C33   1.401       .  A
C28         C177   1.465       .  S
C29          C30   1.401       .  A
C29          H34   1.084       .  S
C30          C31   1.402       .  A
C30         C330   1.466       .  S
C31          C32   1.402       .  A
C31          H35   1.084       .  S
C32          C33   1.401       .  A
C32         C101   1.467       .  S
C33          H36   1.084       .  S
C37          C38   1.401       .  A
C37          C42   1.401       .  A
C37         C225   1.466       .  S
C38          C39   1.401       .  A
C38          H43   1.084       .  S
C39          C40   1.402       .  A
C39         C320   1.466       .  S
C40          C41   1.402       .  A
C40          H44   1.084       .  S
C41          C42   1.401       .  A
C41         C139   1.466       .  S
C42          H45   1.084       .  S
C46          C47   1.401       .  A
C46          C51   1.401       .  A
C46         C296   1.465       .  S
C47          C48   1.401       .  A
C47          H52   1.084       .  S
C48          C49   1.401       .  A
C48         C235   1.465       .  S
C49          C50   1.401       .  A
C49          H53   1.084       .  S
C50          C51   1.401       .  A
C50         C125   1.465       .  S
C51          H54   1.084       .  S
C55          C56   1.402       .  A
C55          C60   1.402       .  A
C55         C249   1.467       .  S
C56          C57   1.401       .  A
C56          H61   1.084       .  S
C57          C58   1.401       .  A
C57         C115   1.466       .  S
C58          C59   1.401       .  A
C58          H62   1.084       .  S
C59          C60   1.402       .  A
C59         C354   1.466       .  S
C60          H63   1.084       .  S
N64          N65   1.323       .  A
N64          C68   1.346       .  A
N64         Cu72   2.076       .  S
N65          C66   1.344       .  A
N65         Cu71   2.069       .  S
C66          C67   1.379       .  A
C66          H69   1.082       .  S
C67          C68   1.382       .  A
C68          H70   1.082       .  S
Cu71         N74   2.069       .  S
Cu72         N82   2.076       .  S
Cu73         N75   2.072       .  S
Cu73         N81   2.072       .  S
N74          N75   1.322       .  A
N74          C78   1.344       .  A
N75          C76   1.346       .  A
C76          C77   1.381       .  A
C76          H79   1.082       .  S
C77          C78   1.379       .  A
C78          H80   1.082       .  S
N81          N82   1.323       .  A
N81          C85   1.344       .  A
N82          C83   1.345       .  A
C83          C84   1.383       .  A
C83          H86   1.082       .  S
C84          C85   1.382       .  A
C84         C535   1.475       .  S
C85          H87   1.082       .  S
N88          N89   1.322       .  A
N88          C92   1.346       .  A
N88         Cu96   2.072       .  S
N89          C90   1.344       .  A
N89         Cu95   2.069       .  S
C90          C91   1.379       .  A
C90          H93   1.082       .  S
C91          C92   1.381       .  A
C92          H94   1.082       .  S
Cu95         N98   2.069       .  S
Cu96        N106   2.073       .  S
Cu97         N99   2.078       .  S
Cu97        N105   2.078       .  S
N98          N99   1.323       .  A
N98         C102   1.344       .  A
N99         C100   1.347       .  A
C100        C101   1.382       .  A
C100        H103   1.082       .  S
C101        C102   1.379       .  A
C102        H104   1.082       .  S
N105        N106   1.323       .  A
N105        C109   1.346       .  A
N106        C107   1.344       .  A
C107        C108   1.383       .  A
C107        H110   1.082       .  S
C108        C109   1.384       .  A
C108        C526   1.476       .  S
C109        H111   1.082       .  S
N112        N113   1.323       .  A
N112        C116   1.347       .  A
N112       Cu120   2.076       .  S
N113        C114   1.344       .  A
N113       Cu119   2.070       .  S
C114        C115   1.379       .  A
C114        H117   1.082       .  S
C115        C116   1.381       .  A
C116        H118   1.082       .  S
Cu119       N122   2.070       .  S
Cu120       N130   2.077       .  S
Cu121       N123   2.071       .  S
Cu121       N129   2.071       .  S
N122        N123   1.322       .  A
N122        C126   1.344       .  A
N123        C124   1.346       .  A
C124        C125   1.380       .  A
C124        H127   1.082       .  S
C125        C126   1.380       .  A
C126        H128   1.082       .  S
N129        N130   1.321       .  A
N129        C133   1.344       .  A
N130        C131   1.344       .  A
C131        C132   1.388       .  A
C131        H134   1.082       .  S
C132        C133   1.387       .  A
C132        C511   1.487       .  S
C133        H135   1.080       .  S
N136        N137   1.322       .  A
N136        C140   1.346       .  A
N136       Cu144   2.074       .  S
N137        C138   1.344       .  A
N137       Cu143   2.069       .  S
C138        C139   1.379       .  A
C138        H141   1.082       .  S
C139        C140   1.381       .  A
C140        H142   1.082       .  S
Cu143       N146   2.069       .  S
Cu144       N154   2.074       .  S
Cu145       N147   2.075       .  S
Cu145       N153   2.075       .  S
N146        N147   1.323       .  A
N146        C150   1.344       .  A
N147        C148   1.346       .  A
C148        C149   1.381       .  A
C148        H151   1.082       .  S
C149        C150   1.379       .  A
C149        C286   1.466       .  S
C150        H152   1.082       .  S
N153        N154   1.323       .  A
N153        C157   1.345       .  A
N154        C155   1.344       .  A
C155        C156   1.383       .  A
C155        H158   1.082       .  S
C156        C157   1.383       .  A
C156        C499   1.476       .  S
C157        H159   1.082       .  S
O160       Cu168   2.014   1_556  S
O160        C170   1.278       .  A
O161       Cu168   1.999   1_655  S
O161        C171   1.277       .  A
O162       Cu168   2.003   1_656  S
O162        C172   1.277       .  A
O163       Cu168   2.007       .  S
O163        C173   1.277       .  A
O164       Cu169   2.004       .  S
O164        C173   1.277       .  A
O165       Cu169   2.010   1_656  S
O165        C172   1.277       .  A
O166       Cu169   2.015   1_655  S
O166        C171   1.279       .  A
O167       Cu169   2.002   1_556  S
O167        C170   1.277       .  A
Cu168      Cu169   2.375       .  S
C170        C523   1.471       .  S
C171        C514   1.483       .  S
C172        C538   1.469       .  S
C173        C502   1.469       .  S
N174        N175   1.323       .  A
N174        C178   1.346       .  A
N174       Cu182   2.075       .  S
N175        C176   1.344       .  A
N175       Cu181   2.070       .  S
C176        C177   1.379       .  A
C176        H179   1.082       .  S
C177        C178   1.381       .  A
C178        H180   1.082       .  S
Cu181       N184   2.070       .  S
Cu182       N192   2.075       .  S
Cu183       N185   2.074       .  S
Cu183       N191   2.074       .  S
N184        N185   1.322       .  A
N184        C188   1.344       .  A
N185        C186   1.346       .  A
C186        C187   1.381       .  A
C186        H189   1.082       .  S
C187        C188   1.380       .  A
C188        H190   1.082       .  S
N191        N192   1.321       .  A
N191        C195   1.344       .  A
N192        C193   1.344       .  A
C193        C194   1.388       .  A
C193        H196   1.082       .  S
C194        C195   1.388       .  A
C194        C487   1.488       .  S
C195        H197   1.080       .  S
N198        N199   1.322       .  A
N198        C202   1.346       .  A
N198       Cu206   2.071       .  S
N199        C200   1.344       .  A
N199       Cu205   2.070       .  S
C200        C201   1.380       .  A
C200        H203   1.082       .  S
C201        C202   1.380       .  A
C202        H204   1.082       .  S
Cu205       N208   2.070       .  S
Cu206       N216   2.072       .  S
Cu207       N209   2.077       .  S
Cu207       N215   2.077       .  S
N208        N209   1.323       .  A
N208        C212   1.344       .  A
N209        C210   1.346       .  A
C210        C211   1.381       .  A
C210        H213   1.082       .  S
C211        C212   1.379       .  A
C212        H214   1.082       .  S
N215        N216   1.322       .  A
N215        C219   1.345       .  A
N216        C217   1.344       .  A
C217        C218   1.387       .  A
C217        H220   1.081       .  S
C218        C219   1.387       .  A
C218        C475   1.486       .  S
C219        H221   1.082       .  S
N222        N223   1.322       .  A
N222        C226   1.346       .  A
N222       Cu230   2.074       .  S
N223        C224   1.344       .  A
N223       Cu229   2.069       .  S
C224        C225   1.379       .  A
C224        H227   1.082       .  S
C225        C226   1.381       .  A
C226        H228   1.082       .  S
Cu229       N232   2.069       .  S
Cu230       N240   2.074       .  S
Cu231       N233   2.074       .  S
Cu231       N239   2.075       .  S
N232        N233   1.323       .  A
N232        C236   1.344       .  A
N233        C234   1.346       .  A
C234        C235   1.381       .  A
C234        H237   1.082       .  S
C235        C236   1.379       .  A
C236        H238   1.082       .  S
N239        N240   1.321       .  A
N239        C243   1.344       .  A
N240        C241   1.344       .  A
C241        C242   1.388       .  A
C241        H244   1.080       .  S
C242        C243   1.387       .  A
C242        C463   1.487       .  S
C243        H245   1.082       .  S
N246        N247   1.323       .  A
N246        C250   1.347       .  A
N246       Cu254   2.077       .  S
N247        C248   1.344       .  A
N247       Cu253   2.070       .  S
C248        C249   1.379       .  A
C248        H251   1.082       .  S
C249        C250   1.382       .  A
C250        H252   1.082       .  S
Cu253       N256   2.070       .  S
Cu254       N264   2.078       .  S
Cu255       N257   2.072       .  S
Cu255       N263   2.073       .  S
N256        N257   1.322       .  A
N256        C260   1.344       .  A
N257        C258   1.346       .  A
C258        C259   1.381       .  A
C258        H261   1.082       .  S
C259        C260   1.380       .  A
C259        C288   1.466       .  S
C260        H262   1.082       .  S
N263        N264   1.321       .  A
N263        C267   1.344       .  A
N264        C265   1.344       .  A
C265        C266   1.389       .  A
C265        H268   1.081       .  S
C266        C267   1.389       .  A
C266        C451   1.490       .  S
C267        H269   1.080       .  S
O270       Cu278   2.006   1_566  S
O270        C280   1.278       .  A
O271       Cu278   2.012       .  S
O271        C281   1.279       .  A
O272       Cu278   2.008   1_556  S
O272        C282   1.278       .  A
O273       Cu278   2.007   1_565  S
O273        C283   1.278       .  A
O274       Cu279   2.010   1_565  S
O274        C283   1.278       .  A
O275       Cu279   2.009   1_556  S
O275        C282   1.278       .  A
O276       Cu279   2.006       .  S
O276        C281   1.277       .  A
O277       Cu279   2.011   1_566  S
O277        C280   1.279       .  A
Cu278      Cu279   2.369       .  S
C280        C490   1.484       .  S
C281        C454   1.486       .  S
C282        C478   1.481       .  S
C283        C466   1.482       .  S
C284        C285   1.401       .  A
C284        C289   1.401       .  A
C284        C368   1.465       .  S
C285        C286   1.401       .  A
C285        H290   1.084       .  S
C286        C287   1.402       .  A
C287        C288   1.402       .  A
C287        H291   1.084       .  S
C288        C289   1.401       .  A
C289        H292   1.084       .  S
N293        N294   1.323       .  A
N293        C297   1.346       .  A
N293       Cu301   2.074       .  S
N294        C295   1.344       .  A
N294       Cu300   2.068       .  S
C295        C296   1.379       .  A
C295        H298   1.082       .  S
C296        C297   1.381       .  A
C297        H299   1.082       .  S
Cu300       N303   2.068       .  S
Cu301       N311   2.074       .  S
Cu302       N304   2.074       .  S
Cu302       N310   2.075       .  S
N303        N304   1.322       .  A
N303        C307   1.344       .  A
N304        C305   1.346       .  A
C305        C306   1.381       .  A
C305        H308   1.082       .  S
C306        C307   1.379       .  A
C307        H309   1.082       .  S
N310        N311   1.322       .  A
N310        C314   1.344       .  A
N311        C312   1.345       .  A
C312        C313   1.385       .  A
C312        H315   1.082       .  S
C313        C314   1.386       .  A
C313        C439   1.482       .  S
C314        H316   1.081       .  S
N317        N318   1.323       .  A
N317        C321   1.346       .  A
N317       Cu325   2.075       .  S
N318        C319   1.344       .  A
N318       Cu324   2.071       .  S
C319        C320   1.379       .  A
C319        H322   1.082       .  S
C320        C321   1.381       .  A
C321        H323   1.082       .  S
Cu324       N327   2.071       .  S
Cu325       N335   2.075       .  S
Cu326       N328   2.073       .  S
Cu326       N334   2.073       .  S
N327        N328   1.322       .  A
N327        C331   1.344       .  A
N328        C329   1.346       .  A
C329        C330   1.381       .  A
C329        H332   1.082       .  S
C330        C331   1.380       .  A
C331        H333   1.082       .  S
N334        N335   1.322       .  A
N334        C338   1.344       .  A
N335        C336   1.345       .  A
C336        C337   1.386       .  A
C336        H339   1.082       .  S
C337        C338   1.386       .  A
C337        C427   1.483       .  S
C338        H340   1.081       .  S
N341        N342   1.323       .  A
N341        C345   1.346       .  A
N341       Cu349   2.074       .  S
N342        C343   1.344       .  A
N342       Cu348   2.071       .  S
C343        C344   1.380       .  A
C343        H346   1.082       .  S
C344        C345   1.381       .  A
C345        H347   1.082       .  S
Cu348       N351   2.071       .  S
Cu349       N359   2.074       .  S
Cu350       N352   2.074       .  S
Cu350       N358   2.074       .  S
N351        N352   1.323       .  A
N351        C355   1.344       .  A
N352        C353   1.346       .  A
C353        C354   1.381       .  A
C353        H356   1.082       .  S
C354        C355   1.380       .  A
C355        H357   1.082       .  S
N358        N359   1.322       .  A
N358        C362   1.345       .  A
N359        C360   1.344       .  A
C360        C361   1.384       .  A
C360        H363   1.082       .  S
C361        C362   1.384       .  A
C361        C418   1.479       .  S
C362        H364   1.082       .  S
N365        N366   1.322       .  A
N365        C369   1.346       .  A
N365       Cu373   2.074       .  S
N366        C367   1.344       .  A
N366       Cu372   2.069       .  S
C367        C368   1.379       .  A
C367        H370   1.082       .  S
C368        C369   1.381       .  A
C369        H371   1.082       .  S
Cu372       N375   2.069       .  S
Cu373       N383   2.074       .  S
Cu374       N376   2.073       .  S
Cu374       N382   2.073       .  S
N375        N376   1.322       .  A
N375        C379   1.344       .  A
N376        C377   1.346       .  A
C377        C378   1.381       .  A
C377        H380   1.082       .  S
C378        C379   1.379       .  A
C379        H381   1.082       .  S
N382        N383   1.323       .  A
N382        C386   1.345       .  A
N383        C384   1.344       .  A
C384        C385   1.384       .  A
C384        H387   1.082       .  S
C385        C386   1.384       .  A
C385        C403   1.478       .  S
C386        H388   1.082       .  S
O389       Cu397   2.006   1_665  S
O389        C399   1.278       .  A
O390       Cu397   2.008       .  S
O390        C400   1.278       .  A
O391       Cu397   2.007   1_655  S
O391        C401   1.278       .  A
O392       Cu397   2.009   1_565  S
O392        C402   1.278       .  A
O393       Cu398   2.006   1_565  S
O393        C402   1.278       .  A
O394       Cu398   2.007   1_655  S
O394        C401   1.278       .  A
O395       Cu398   2.007       .  S
O395        C400   1.277       .  A
O396       Cu398   2.009   1_665  S
O396        C399   1.278       .  A
Cu397      Cu398   2.371       .  S
C399        C442   1.476       .  S
C400        C406   1.473       .  S
C401        C415   1.473       .  S
C402        C430   1.478       .  S
C403        C404   1.404       .  A
C403        C408   1.410       .  A
C404        C405   1.400       .  A
C404        H409   1.083       .  S
C405        C406   1.408       .  A
C405        O410   1.372       .  S
C406        C407   1.402       .  A
C407        C408   1.399       .  A
C407        H411   1.084       .  S
C408        O412   1.371       .  S
O410        H414   0.992       .  S
O412        H413   0.992       .  S
C415        C416   1.402       .  A
C415        C420   1.408       .  A
C416        C417   1.399       .  A
C416        H421   1.084       .  S
C417        C418   1.410       .  A
C417        O422   1.371       .  S
C418        C419   1.404       .  A
C419        C420   1.400       .  A
C419        H423   1.083       .  S
C420        O424   1.372       .  S
O422        H426   0.992       .  S
O424        H425   0.992   1_655  S
C427        C428   1.405       .  A
C427        C432   1.411       .  A
C428        C429   1.399       .  A
C428        H433   1.083       .  S
C429        C430   1.410       .  A
C429        O434   1.372       .  S
C430        C431   1.403       .  A
C431        C432   1.399       .  A
C431        H435   1.084       .  S
C432        O436   1.371       .  S
O434        H438   0.992       .  S
O436        H437   0.992       .  S
C439        C440   1.405       .  A
C439        C444   1.411       .  A
C440        C441   1.400       .  A
C440        H445   1.083       .  S
C441        C442   1.409       .  A
C441        O446   1.372       .  S
C442        C443   1.403       .  A
C443        C444   1.399       .  A
C443        H447   1.084       .  S
C444        O448   1.371       .  S
O446        H450   0.992   1_565  S
O448        H449   0.992       .  S
C451        C452   1.406       .  A
C451        C456   1.413       .  A
C452        C453   1.400       .  A
C452        H457   1.082       .  S
C453        C454   1.411       .  A
C453        O458   1.372       .  S
C454        C455   1.404       .  A
C455        C456   1.401       .  A
C455        H459   1.083       .  S
C456        O460   1.371       .  S
O458        H462   0.992       .  S
O460        H461   0.992       .  S
C463        C464   1.406       .  A
C463        C468   1.412       .  A
C464        C465   1.400       .  A
C464        H469   1.083       .  S
C465        C466   1.410       .  A
C465        O470   1.372       .  S
C466        C467   1.404       .  A
C467        C468   1.401       .  A
C467        H471   1.084       .  S
C468        O472   1.371       .  S
O470        H474   0.992       .  S
O472        H473   0.992       .  S
C475        C476   1.405       .  A
C475        C480   1.412       .  A
C476        C477   1.401       .  A
C476        H481   1.083       .  S
C477        C478   1.410       .  A
C477        O482   1.372       .  S
C478        C479   1.404       .  A
C479        C480   1.401       .  A
C479        H483   1.084       .  S
C480        O484   1.371       .  S
O482        H486   0.992       .  S
O484        H485   0.992       .  S
C487        C488   1.406       .  A
C487        C492   1.412       .  A
C488        C489   1.400       .  A
C488        H493   1.083       .  S
C489        C490   1.411       .  A
C489        O494   1.372       .  S
C490        C491   1.404       .  A
C491        C492   1.401       .  A
C491        H495   1.084       .  S
C492        O496   1.371       .  S
O494        H498   0.992       .  S
O496        H497   0.992       .  S
C499        C500   1.404       .  A
C499        C504   1.410       .  A
C500        C501   1.400       .  A
C500        H505   1.083       .  S
C501        C502   1.407       .  A
C501        O506   1.372       .  S
C502        C503   1.401       .  A
C503        C504   1.399       .  A
C503        H507   1.084       .  S
C504        O508   1.371       .  S
O506        H510   0.992       .  S
O508        H509   0.992       .  S
C511        C512   1.405       .  A
C511        C516   1.412       .  A
C512        C513   1.399       .  A
C512        H517   1.083       .  S
C513        C514   1.411       .  A
C513        O518   1.372       .  S
C514        C515   1.404       .  A
C515        C516   1.401       .  A
C515        H519   1.084       .  S
C516        O520   1.371       .  S
O518        H522   0.992       .  S
O520        H521   0.992       .  S
C523        C524   1.402       .  A
C523        C528   1.407       .  A
C524        C525   1.400       .  A
C524        H529   1.084       .  S
C525        C526   1.410       .  A
C525        O530   1.372       .  S
C526        C527   1.403       .  A
C527        C528   1.400       .  A
C527        H531   1.084       .  S
C528        O532   1.372       .  S
O530        H534   0.992       .  S
O532        H533   0.992   1_556  S
C535        C536   1.403       .  A
C535        C540   1.409       .  A
C536        C537   1.399       .  A
C536        H541   1.084       .  S
C537        C538   1.407       .  A
C537        O542   1.372       .  S
C538        C539   1.401       .  A
C539        C540   1.399       .  A
C539        H543   1.084       .  S
C540        O544   1.372       .  S
O542        H546   0.992   1_556  S
O544        H545   0.992       .  S
