geometry optimzed in LAMMPS
_audit_creation_date              2020-12-01 
_audit_creation_method            'lammps2cif' 
_symmetry_space_group_name_H-M    'P1' 
_symmetry_Int_Tables_number       1 
_symmetry_cell_setting            triclinic 
loop_ 
_symmetry_equiv_pos_as_xyz 
  x,y,z 
_cell_length_a                    41.18364621 
_cell_length_b                    41.30308982511408 
_cell_length_c                    31.948541897130934 
_cell_angle_alpha                 89.90664591131804 
_cell_angle_beta                  90.6303035525208 
_cell_angle_gamma                 122.6227520714472 
loop_ 
_atom_site_label 
_atom_site_type_symbol 
_atom_site_fract_x 
_atom_site_fract_y 
_atom_site_fract_z 
_atom_site_charge 
C1          C  0.35130884  0.14484422  0.95822216     0.79800
N2          N  0.37256698  0.18389202  0.95720742    -0.78500
C3          C  0.35522038  0.20392753  0.95383420     0.82300
N4          N  0.31620544  0.18463336  0.95058370    -0.78400
C5          C  0.29466456  0.14561247  0.95108406     0.82400
N6          N  0.31238702  0.12598943  0.95444581    -0.80200
C7          C  0.35503072  0.14976277  0.28338256     0.79800
N8          N  0.31599305  0.12964048  0.28373627    -0.78500
C9          C  0.29656611  0.14751082  0.27999088     0.82300
N10         N  0.31661384  0.18628615  0.27540238    -0.78400
C11         C  0.35577261  0.20692174  0.27465810     0.82400
N12         N  0.37465456  0.18847443  0.27932227    -0.80200
C13         C  0.13665783  0.36239852  0.78053634     0.79800
N14         N  0.17574949  0.38160461  0.78017986    -0.78500
C15         C  0.19388143  0.36227454  0.77711699     0.82300
N16         N  0.17239802  0.32322350  0.77557723    -0.78400
C17         C  0.13329814  0.30362808  0.77617024     0.82400
N18         N  0.11586843  0.32348441  0.77852532    -0.80200
C19         C  0.13661571  0.35599043  0.46500146     0.79800
N20         N  0.11736591  0.31714818  0.46175575    -0.78500
C21         C  0.13662914  0.29916856  0.45775889     0.82300
N22         N  0.17563842  0.32039547  0.45577756    -0.78400
C23         C  0.19547442  0.35932386  0.45854086     0.82400
N24         N  0.17577605  0.37695129  0.46280523    -0.80200
C25         C  0.13427460  0.07211428  0.90612503     0.42000
N26         N  0.08693676  0.05488763  0.86371741     0.00900
C27         C  0.40992334  0.01995453  0.95728853    -0.06900
H28         H  0.44518678  0.44115534  0.00981416     0.06400
C29         C  0.44892637  0.37840680  0.86935174    -0.07300
Co30       Co  0.02360721  0.05793831  0.90388342     0.74200
N31         N  0.47568750  0.48496086  0.96375207    -0.26500
Co32       Co  0.43863164  0.46738065  0.91208566     0.74100
C33         C  0.43606738  0.36436622  0.91175619     0.42200
N34         N  0.01576176  0.44932755  0.84722379     0.00600
N35         N  0.44128948  0.41871082  0.90396648     0.00700
N36         N  0.46669627  0.07736729  0.95949332    -0.47300
H37         H  0.10357684  0.08227630  0.95959647     0.06400
N38         N  0.00778475  0.01986342  0.95363732     0.00900
N39         N  0.40286164  0.45146573  0.85928056     0.00700
C40         C  0.35533748  0.43529913  0.81754749     0.42300
N41         N  0.04851586  0.48279662  0.85145527    -0.25900
C42         C  0.04043063  0.12777816  0.84974853    -0.06800
N43         N  0.12178060  0.06068551  0.86641352    -0.47000
N44         N  0.36812866  0.44602962  0.85731427    -0.47300
C45         C  0.05516945  0.14157746  0.80785238     0.42100
N46         N  0.47186205  0.04857695  0.95578784     0.00900
N47         N  0.01606118  0.02229143  0.75790828    -0.25900
N48         N  0.07603828  0.06236037  0.89912965    -0.26400
N49         N  0.48091986  0.48724456  0.76802253     0.00600
H50         H  0.04703185  0.06668872  0.71217276     0.06500
H51         H  0.38506186  0.42525845  0.76302861     0.06500
N52         N  0.43921683  0.01473579  0.95423969    -0.26500
N53         N  0.45133759  0.41196521  0.86758296    -0.26100
N54         N  0.04977532  0.08761957  0.81746856     0.00900
C55         C  0.50395422  0.49624478  0.02659688     0.42300
C56         C  0.07774391  0.47853319  0.84304546    -0.07400
N57         N  0.41330995  0.44440443  0.82331411    -0.26100
H58         H  0.45379961  0.36499963  0.84325546     0.06500
N59         N  0.02467249  0.02790403  0.99095254    -0.47300
H60         H  0.10783035  0.50150833  0.84240310     0.06500
C61         C  0.48396783  0.00904370  0.74135756     0.42200
C62         C  0.10409880  0.07357905  0.92783023    -0.06800
Co63       Co  0.05214659  0.03899239  0.81027491     0.73800
N64         N  0.02085183  0.42165508  0.83553436    -0.47000
C65         C  0.42831038  0.06164854  0.96065283     0.42400
N66         N  0.06062605  0.11539448  0.78979824    -0.47000
Co67       Co  0.46553462  0.44888441  0.81729667     0.73900
C68         C  0.38501235  0.43365319  0.79506450    -0.07400
C69         C  0.47063198  0.46820400  0.00112491    -0.06900
N70         N  0.03840274  0.09444454  0.85295610    -0.26400
N71         N  0.43135572  0.39067237  0.93114154    -0.47200
H72         H  0.37970323  0.99736436  0.95646077     0.06400
C73         C  0.02145251  0.03970580  0.72083993    -0.06700
Cl74       Cl  0.49477766  0.99973484  0.90105723    -0.50300
C75         C  0.05932587  0.43790614  0.83251115     0.42200
H76         H  0.03439399  0.14158206  0.87448369     0.06400
N77         N  0.46355117  0.47975147  0.73105250    -0.47000
C78         C  0.50969337  0.50594191  0.20758343     0.42000
N79         N  0.48267049  0.49686938  0.26737507     0.00900
C80         C  0.06022520  0.10905128  0.43258163    -0.06900
H81         H  0.13377509  0.04848032  0.38305164     0.06400
C82         C  0.01242363  0.41563495  0.45725076    -0.07300
Co83       Co  0.02848698  0.06022690  0.31391745     0.74200
N84         N  0.08487749  0.04831658  0.35842354    -0.26500
Co85       Co  0.04646253  0.03014491  0.40754179     0.74100
C86         C  0.05415901  0.43376514  0.46044608     0.42200
N87         N  0.44585002  0.41293170  0.35150098     0.00600
N88         N  0.04127949  0.47753407  0.45709764     0.00700
N89         N  0.04833235  0.12797630  0.37092552    -0.47300
H90         H  0.06020345  0.06035534  0.21822980     0.06400
N91         N  0.07830229  0.06002185  0.32273518     0.00900
N92         N  0.00658756  0.01150310  0.45553509     0.00700
C93         C  0.47642339  0.00051845  0.55991764     0.42300
N94         N  0.43855263  0.42504620  0.31657797    -0.25900
C95         C  0.47235272  0.08994932  0.34010515    -0.06800
N96         N  0.47721393  0.48229545  0.22917756    -0.47000
N97         N  0.01214670  0.02736958  0.49305839    -0.47300
C98         C  0.43133418  0.07132888  0.33045642     0.42100
N99         N  0.04217582  0.09313644  0.36810388     0.00900
N100        N  0.40273907  0.45779955  0.36384461    -0.25900
N101        N  0.01383210  0.02627517  0.26058656    -0.26400
N102        N  0.40920530  0.44494582  0.39871101     0.00600
H103        H  0.35469561  0.46098824  0.34222957     0.06500
H104        H  0.42397633  0.44258809  0.50113283     0.06500
N105        N  0.04919930  0.08159647  0.40361128    -0.26500
N106        N  0.00733110  0.44497393  0.45516481    -0.26100
N107        N  0.44366430  0.02815223  0.34338539     0.00900
C108        C  0.13492544  0.07082517  0.31654186     0.42300
C109        C  0.42811030  0.39836266  0.28664425    -0.07400
N110        N  0.47229405  0.47639151  0.46141825    -0.26100
H111        H  0.98968543  0.38553796  0.45580214     0.06500
N112        N  0.10776434  0.07423019  0.29690852    -0.47300
H113        H  0.41950828  0.39986032  0.25495454     0.06500
C114        C  0.35401788  0.43726648  0.40795257     0.42200
C115        C  0.03257972  0.03447731  0.22436761    -0.06800
Co116      Co  0.44208013  0.47699366  0.31493978     0.73800
N117        N  0.44096845  0.37877231  0.34726778    -0.47000
C118        C  0.05936298  0.13968951  0.41087952     0.42400
N119        N  0.41546758  0.03303893  0.33278064    -0.47000
Co120      Co  0.45865445  0.44394826  0.40701405     0.73900
C121        C  0.45223676  0.46800183  0.49674377    -0.07400
C122        C  0.11985186  0.05366046  0.35735930    -0.06900
N123        N  0.47715913  0.06091789  0.34761591    -0.26400
N124        N  0.07010920  0.47215582  0.46020597    -0.47200
H125        H  0.06910363  0.10811502  0.46430426     0.06400
C126        C  0.36839351  0.45414220  0.36666205    -0.07300
Cl127      Cl  0.49194961  0.00356686  0.39936331    -0.50300
C128        C  0.43032593  0.36798592  0.30707359     0.42200
H129        H  0.49507286  0.12008719  0.33974048     0.06400
N130        N  0.38066026  0.43193390  0.42557608    -0.47000
C131        C  0.48639647  0.03632648  0.62639511    -0.26700
C132        C  0.47475231  0.00135582  0.60633228    -0.14800
C133        C  0.45663734  0.46816804  0.59779770     0.35800
C134        C  0.45989713  0.47265754  0.64120989    -0.26200
C135        C  0.48020271  0.00757743  0.69498566    -0.15400
C136        C  0.48882261  0.03968988  0.67026550     0.36900
N137        N  0.00020937  0.07832442  0.64364888    -0.89700
H138        H  0.99469157  0.06421175  0.56259260     0.18000
H139        H  0.44658871  0.44694487  0.66021726     0.18000
N140        N  0.43640356  0.42971554  0.58171004    -0.88700
H141        H  0.02626717  0.09052886  0.66014011     0.35400
H142        H  0.97834362  0.07221513  0.66466379     0.40500
H143        H  0.45434137  0.42656344  0.56153867     0.40100
H144        H  0.41154315  0.42422466  0.56606868     0.35000
C145        C  0.48921465  0.46787888  0.14173274    -0.26700
C146        C  0.51218136  0.50382360  0.16143461    -0.14800
C147        C  0.53813111  0.03207560  0.16945782     0.35800
C148        C  0.53627208  0.02746853  0.12590279    -0.26200
C149        C  0.50850795  0.49727989  0.07291236    -0.15400
C150        C  0.48736185  0.46426299  0.09796339     0.36900
N151        N  0.46412704  0.42689981  0.07938238    -0.89700
H152        H  0.47216435  0.44228722  0.16045871     0.18000
H153        H  0.03891033  0.05974680  0.06411724     0.18000
N154        N  0.04400918  0.07301737  0.14517561    -0.88700
H155        H  0.90587118  0.42213770  0.12939903     0.35400
H156        H  0.47394528  0.40982877  0.09061993     0.40500
H157        H  0.55771541  0.08853591  0.17419517     0.40100
H158        H  0.59220291  0.07817429  0.17798029     0.35000
C159        C  0.08476952  0.24229134  0.41968361    -0.26700
C160        C  0.11504649  0.25753587  0.44921665    -0.14800
C161        C  0.12483512  0.23302158  0.46833709     0.35800
C162        C  0.10519813  0.19437475  0.45659618    -0.26200
C163        C  0.07626758  0.17954648  0.42551563    -0.15400
C164        C  0.06541549  0.20356250  0.40735816     0.36900
N165        N  0.03514131  0.18869181  0.37624819    -0.89700
H166        H  0.07703342  0.26099008  0.40513668     0.18000
H167        H  0.11375251  0.17626579  0.47092336     0.18000
N168        N  0.15421608  0.24633184  0.50002989    -0.88700
H169        H  0.03101312  0.21024147  0.36574743     0.35400
H170        H  0.00954699  0.16795906  0.39064243     0.40500
H171        H  0.14810154  0.25953005  0.52385485     0.40100
H172        H  0.18061366  0.26647692  0.48684915     0.35000
C173        C  0.25395383  0.41680353  0.42876667    -0.26700
C174        C  0.23752610  0.38218438  0.45113950    -0.14800
C175        C  0.26099663  0.36837635  0.46291855     0.35800
C176        C  0.29927193  0.38757903  0.44962444    -0.26200
C177        C  0.31482020  0.42053515  0.42464293    -0.15400
C178        C  0.29239222  0.43606739  0.41550865     0.36900
N179        N  0.30858152  0.47150626  0.39319223    -0.89700
H180        H  0.23656359  0.42826631  0.42011351     0.18000
H181        H  0.31650171  0.37584526  0.45790487     0.18000
N182        N  0.24618339  0.33489772  0.48848278    -0.88700
H183        H  0.30649697  0.49098442  0.41203079     0.35400
H184        H  0.29189340  0.46643846  0.36620123     0.40500
H185        H  0.26312325  0.34265417  0.51572103     0.40100
H186        H  0.24933528  0.31481237  0.47223899     0.35000
C187        C  0.05574153  0.37499164  0.47115420    -0.26700
C188        C  0.07577269  0.41450849  0.46278100    -0.14800
C189        C  0.11591475  0.43476866  0.45666430     0.35800
C190        C  0.13511899  0.41531467  0.45896488    -0.26200
C191        C  0.11511433  0.37558332  0.46666081    -0.15400
C192        C  0.07479857  0.35528873  0.47343349     0.36900
N193        N  0.05314854  0.31486253  0.48267950    -0.89700
H194        H  0.02500789  0.35923063  0.47645497     0.18000
H195        H  0.16586985  0.43149978  0.45344371     0.18000
N196        N  0.13732719  0.47491852  0.44690964    -0.88700
H197        H  0.02375819  0.30425044  0.48526769     0.35400
H198        H  0.06234356  0.31151415  0.51207308     0.40500
H199        H  0.15060853  0.47859243  0.41804528     0.40100
H200        H  0.15894239  0.48941828  0.46968347     0.35000
C201        C  0.12582514  0.24038858  0.76452302    -0.26700
C202        C  0.11026398  0.26115620  0.77933367    -0.14800
C203        C  0.07425707  0.24116560  0.79974361     0.35800
C204        C  0.05569314  0.20159607  0.80648751    -0.26200
C205        C  0.07224382  0.18136912  0.79345036    -0.15400
C206        C  0.10711482  0.20074680  0.77128675     0.36900
N207        N  0.12474208  0.18081454  0.75751445    -0.89700
H208        H  0.15321268  0.25512092  0.74855016     0.18000
H209        H  0.02879585  0.18687371  0.82343139     0.18000
N210        N  0.05721278  0.26098899  0.81570058    -0.88700
H211        H  0.15206352  0.19380945  0.77153322     0.35400
H212        H  0.12831300  0.18424952  0.72512739     0.40500
H213        H  0.05382560  0.25646327  0.84799576     0.40100
H214        H  0.02983841  0.24884698  0.80203787     0.35000
C215        C  0.29679706  0.38568217  0.77930370    -0.26700
C216        C  0.31527165  0.41939904  0.80354802    -0.14800
C217        C  0.29468668  0.43631773  0.81512729     0.35800
C218        C  0.25584263  0.41845025  0.80372500    -0.26200
C219        C  0.23643651  0.38319633  0.78194399    -0.15400
C220        C  0.25752980  0.36718093  0.76858917     0.36900
N221        N  0.23901569  0.33197306  0.74482699    -0.89700
H222        H  0.31265867  0.37284238  0.77003254     0.18000
H223        H  0.24033676  0.43140714  0.81392793     0.18000
N224        N  0.31239859  0.47159530  0.83839919    -0.88700
H225        H  0.25848322  0.32386974  0.73814363     0.35400
H226        H  0.23038853  0.33726034  0.71609138     0.40500
H227        H  0.33674252  0.49253866  0.82228810     0.40100
H228        H  0.32103257  0.46743753  0.86770497     0.35000
C229        C  0.11625944  0.44047457  0.80233314    -0.26700
C230        C  0.07811515  0.41841197  0.81656824    -0.14800
C231        C  0.05865789  0.37806200  0.81559624     0.35800
C232        C  0.07781651  0.36065273  0.80181020    -0.26200
C233        C  0.11658313  0.38259218  0.78936379    -0.15400
C234        C  0.13559048  0.42303363  0.78873467     0.36900
N235        N  0.17443396  0.44664800  0.77441519    -0.89700
H236        H  0.13146471  0.47152252  0.80180550     0.18000
H237        H  0.06229567  0.32959495  0.80241390     0.18000
N238        N  0.01983717  0.35445749  0.82997400    -0.88700
H239        H  0.19126428  0.46540563  0.79869136     0.35400
H240        H  0.17471388  0.46311762  0.74936595     0.40500
H241        H  0.01954904  0.33753592  0.85451762     0.40100
H242        H  0.00285002  0.33611176  0.80550106     0.35000
C243        C  0.35390633  0.09281835  0.31044086    -0.26700
C244        C  0.37530346  0.12972893  0.29269021    -0.14800
C245        C  0.41519202  0.14627966  0.28562277     0.35800
C246        C  0.43241715  0.12629929  0.29751267    -0.26200
C247        C  0.41107797  0.09000085  0.31632221    -0.15400
C248        C  0.37112436  0.07288326  0.32206159     0.36900
N249        N  0.34733466  0.03587823  0.34083847    -0.89700
H250        H  0.32340849  0.07923406  0.31621679     0.18000
H251        H  0.46291949  0.13949553  0.29194163     0.18000
N252        N  0.43909293  0.18290287  0.26607391    -0.88700
H253        H  0.35895535  0.03619707  0.37019104     0.35400
H254        H  0.34702290  0.01517386  0.32177237     0.40500
H255        H  0.44135737  0.20436962  0.28549255     0.40100
H256        H  0.42666259  0.18276044  0.23731940     0.35000
C257        C  0.41256776  0.26888050  0.29892092    -0.26700
C258        C  0.37778911  0.24937471  0.27596772    -0.14800
C259        C  0.36341573  0.27054011  0.25805796     0.35800
C260        C  0.38250059  0.31018459  0.26593624    -0.26200
C261        C  0.41540162  0.32877222  0.29188906    -0.15400
C262        C  0.43127944  0.30823437  0.30715680     0.36900
N263        N  0.46609566  0.32718356  0.33177336    -0.89700
H264        H  0.42438303  0.25328029  0.31253519     0.18000
H265        H  0.37030397  0.32589592  0.25364138     0.18000
N266        N  0.32928932  0.25187114  0.23236931    -0.88700
H267        H  0.48634751  0.32347971  0.31683525     0.35400
H268        H  0.46022196  0.31365352  0.36087843     0.40500
H269        H  0.33628278  0.26509316  0.20305102     0.40100
H270        H  0.30900847  0.25633486  0.24591776     0.35000
C271        C  0.19684913  0.07501991  0.32056350    -0.26700
C272        C  0.17506808  0.08848730  0.30292778    -0.14800
C273        C  0.19287489  0.12017569  0.27555884     0.35800
C274        C  0.23236529  0.13841430  0.26737668    -0.26200
C275        C  0.25442546  0.12558782  0.28612136    -0.15400
C276        C  0.23621277  0.09333759  0.31282566     0.36900
N277        N  0.25776067  0.08008345  0.33395804    -0.89700
H278        H  0.18353184  0.05059565  0.34147847     0.18000
H279        H  0.24595343  0.16317496  0.24692319     0.18000
N280        N  0.17151389  0.13495472  0.25735741    -0.88700
H281        H  0.24577575  0.05125332  0.32585242     0.35400
H282        H  0.25463455  0.08156103  0.36621332     0.40500
H283        H  0.17346630  0.13425844  0.22481334     0.40100
H284        H  0.18461890  0.16367667  0.26663758     0.35000
C285        C  0.36953749  0.06386925  0.96814908    -0.26700
C286        C  0.40941672  0.08362126  0.96186971    -0.14800
C287        C  0.43028782  0.12384034  0.95623986     0.35800
C288        C  0.41083246  0.14310099  0.95562429    -0.26200
C289        C  0.37071140  0.12322985  0.96091969    -0.15400
C290        C  0.35010693  0.08314855  0.96807032     0.36900
N291        N  0.30951405  0.06170211  0.97578569    -0.89700
H292        H  0.35304186  0.03316310  0.97342089     0.18000
H293        H  0.42744097  0.17384834  0.95038083     0.18000
N294        N  0.47115292  0.14538548  0.95038832    -0.88700
H295        H  0.30482809  0.04858400  0.00503631     0.35400
H296        H  0.29584464  0.04007182  0.95306000     0.40500
H297        H  0.48398299  0.16630478  0.97395856     0.40100
H298        H  0.47688316  0.15945269  0.92164229     0.35000
C299        C  0.40905614  0.26087706  0.91901518    -0.26700
C300        C  0.37886723  0.24593272  0.94777473    -0.14800
C301        C  0.37124525  0.27121718  0.96863589     0.35800
C302        C  0.39209759  0.31022898  0.95832090    -0.26200
C303        C  0.42015339  0.32469375  0.92698687    -0.15400
C304        C  0.42998940  0.30002663  0.90851851     0.36900
N305        N  0.46087471  0.31454595  0.87904174    -0.89700
H306        H  0.41555653  0.24166776  0.90365689     0.18000
H307        H  0.38492299  0.32894180  0.97361424     0.18000
N308        N  0.34272915  0.25822242  0.00053376    -0.88700
H309        H  0.46403323  0.29253269  0.86816624     0.35400
H310        H  0.48644363  0.33412394  0.89495465     0.40500
H311        H  0.34873338  0.24399438  0.02344911     0.40100
H312        H  0.31569748  0.23893222  0.98727128     0.35000
C313        C  0.23602589  0.09390231  0.91456197    -0.26700
C314        C  0.25276021  0.12459306  0.94325179    -0.14800
C315        C  0.22960449  0.13578421  0.96221549     0.35800
C316        C  0.19047255  0.11706752  0.95118406    -0.26200
C317        C  0.17421724  0.08783959  0.92069932    -0.15400
C318        C  0.19711318  0.07575868  0.90278786     0.36900
N319        N  0.18105836  0.04525847  0.87248214    -0.89700
H320        H  0.25357019  0.08491500  0.89994610     0.18000
H321        H  0.17326690  0.12662496  0.96537410     0.18000
N322        N  0.24569592  0.16608899  0.99270895    -0.88700
H323        H  0.18461892  0.02356540  0.88374037     0.35400
H324        H  0.19681339  0.05593037  0.84492219     0.40500
H325        H  0.23044848  0.15503428  0.02050508     0.40100
H326        H  0.24134572  0.18743642  0.98205840     0.35000
C327        C  0.34948692  0.63978236  0.97772447     0.79800
N328        N  0.36919969  0.67874950  0.97837511    -0.78500
C329        C  0.35059386  0.69751454  0.98239930     0.82300
N330        N  0.31152959  0.67654970  0.98541233    -0.78400
C331        C  0.29144055  0.63749501  0.98500725     0.82400
N332        N  0.31061785  0.61946904  0.98065928    -0.80200
C333        C  0.35303749  0.65059275  0.31299442     0.79800
N334        N  0.31431034  0.62956806  0.31846436    -0.78500
C335        C  0.29444209  0.64713473  0.32059859     0.82300
N336        N  0.31363598  0.68603212  0.31724472    -0.78400
C337        C  0.35237897  0.70711013  0.31165636     0.82400
N338        N  0.37170781  0.68916620  0.30958391    -0.80200
C339        C  0.13720726  0.85630649  0.81196346     0.79800
N340        N  0.17610286  0.87437629  0.81302902    -0.78500
C341        C  0.19321847  0.85444644  0.81853938     0.82300
N342        N  0.17114948  0.81586626  0.82317842    -0.78400
C343        C  0.13220368  0.79721806  0.82236706     0.82400
N344        N  0.11516895  0.81745863  0.81698306    -0.80200
C345        C  0.13280780  0.85910644  0.47448242     0.79800
N346        N  0.11344273  0.82023390  0.47718131    -0.78500
C347        C  0.13257595  0.80215599  0.48325889     0.82300
N348        N  0.17174474  0.82342483  0.48535567    -0.78400
C349        C  0.19152270  0.86235499  0.48255461     0.82400
N350        N  0.17182592  0.87980283  0.47689581    -0.80200
C351        C  0.12783505  0.55567664  0.95911107     0.42000
N352        N  0.08164042  0.54286006  0.91699559     0.00900
C353        C  0.40806382  0.52087213  0.92551038    -0.06900
H354        H  0.44527521  0.93664421  0.04386150     0.06400
C355        C  0.44686550  0.87427170  0.90327614    -0.07300
Co356      Co  0.01977659  0.54765390  0.95788019     0.74200
N357        N  0.47600480  0.98085786  0.99833715    -0.26500
Co358      Co  0.43908650  0.96455450  0.94691124     0.74100
C359        C  0.43246437  0.85985159  0.94519964     0.42200
N360        N  0.01981804  0.95507861  0.80225687     0.00600
N361        N  0.44047189  0.91534298  0.93801738     0.00700
N362        N  0.46405430  0.57914072  0.92654773    -0.47300
H363        H  0.09824283  0.56544216  0.01417254     0.06400
N364        N  0.99977698  0.50603658  0.00451364     0.00900
N365        N  0.40354839  0.94936258  0.89466851     0.00700
C366        C  0.35492008  0.93146298  0.85458043     0.42300
N367        N  0.05238469  0.98899775  0.80426353    -0.25900
C368        C  0.04388311  0.62301232  0.90989708    -0.06800
N369        N  0.11562140  0.54682647  0.91907431    -0.47000
N370        N  0.36849082  0.94295828  0.89384849    -0.47300
C371        C  0.05978126  0.63853951  0.86867839     0.42100
N372        N  0.46997849  0.55118779  0.91964007     0.00900
N373        N  0.01596697  0.52080662  0.80914139    -0.25900
N374        N  0.07081585  0.54906668  0.95322269    -0.26400
N375        N  0.48052508  0.98511818  0.80239069     0.00600
H376        H  0.05014325  0.56855281  0.76866760     0.06500
H377        H  0.38348318  0.92080429  0.79932391     0.06500
N378        N  0.43778422  0.51688687  0.91903775    -0.26500
N379        N  0.45075816  0.90860417  0.90169662    -0.26100
N380        N  0.04982287  0.58219431  0.87409946     0.00900
C381        C  0.50484643  0.99085292  0.06062630     0.42300
C382        C  0.08186367  0.98398612  0.80217457    -0.07400
N383        N  0.41340988  0.94200538  0.85849751    -0.26100
H384        H  0.45121917  0.86022811  0.87738770     0.06500
N385        N  0.01492961  0.51060480  0.04240431    -0.47300
H386        H  0.11204443  0.00672478  0.80319827     0.06500
C387        C  0.48551370  0.51066627  0.70651875     0.42200
C388        C  0.09834095  0.55762690  0.98190171    -0.06800
Co389      Co  0.04954323  0.53267693  0.86272320     0.73800
N390        N  0.02525026  0.92643948  0.79914040    -0.47000
C391        C  0.42562992  0.56224248  0.93024449     0.42400
N392        N  0.06282451  0.61169211  0.84844558    -0.47000
Co393      Co  0.46530186  0.94613877  0.85146616     0.73900
C394        C  0.38431494  0.93018272  0.83112642    -0.07400
C395        C  0.47093266  0.96357777  0.03535546    -0.06900
N396        N  0.03882934  0.58812528  0.91032961    -0.26400
N397        N  0.42857651  0.88657126  0.96464066    -0.47200
H398        H  0.37816961  0.49762163  0.92759407     0.06400
C399        C  0.02428477  0.54072303  0.77354787    -0.06700
Cl400      Cl  0.49441527  0.50288890  0.86641836    -0.50300
C401        C  0.06368035  0.94232361  0.79872681     0.42200
H402        H  0.03843660  0.63622970  0.93577449     0.06400
N403        N  0.46265073  0.97781802  0.76567927    -0.47000
C404        C  0.50964533  0.00429516  0.24066816     0.42000
N405        N  0.48141142  0.99599519  0.29952025     0.00900
C406        C  0.05968187  0.61031971  0.47487866    -0.06900
H407        H  0.13304130  0.54770931  0.42855108     0.06400
C408        C  0.01383661  0.91616084  0.41284045    -0.07300
Co409      Co  0.02676873  0.55727441  0.35798997     0.74200
N410        N  0.08357039  0.54643063  0.40356164    -0.26500
Co411      Co  0.04576072  0.53011350  0.45318112     0.74100
C412        C  0.05516695  0.93445607  0.42034283     0.42200
N413        N  0.44473482  0.91342936  0.38569061     0.00600
N414        N  0.04272624  0.97798829  0.41031660     0.00700
N415        N  0.04649717  0.62652828  0.41219083    -0.47300
H416        H  0.05603185  0.55006763  0.26226221     0.06400
N417        N  0.07642882  0.55673030  0.36727034     0.00900
N418        N  0.00681589  0.51318252  0.50209727     0.00700
C419        C  0.47764128  0.49908525  0.52579788     0.42300
N420        N  0.43815757  0.92515459  0.35005137    -0.25900
C421        C  0.47630895  0.59135206  0.31770951    -0.06800
N422        N  0.47707236  0.98049280  0.26204010    -0.47000
N423        N  0.01395975  0.52990016  0.53924865    -0.47300
C424        C  0.43481738  0.57343091  0.31224752     0.42100
N425        N  0.04133893  0.59206063  0.41086795     0.00900
N426        N  0.40066680  0.95718201  0.39474492    -0.25900
N427        N  0.01056722  0.52053855  0.30646048    -0.26400
N428        N  0.40673319  0.94538429  0.43068682     0.00600
H429        H  0.35302917  0.95881741  0.36971157     0.06500
H430        H  0.42284225  0.94338570  0.53674281     0.06500
N431        N  0.04887105  0.58188890  0.44708017    -0.26500
N432        N  0.00897537  0.94537041  0.40707470    -0.26100
N433        N  0.44719847  0.52954337  0.31480699     0.00900
C434        C  0.13314257  0.56743747  0.36101333     0.42300
C435        C  0.42916890  0.89858708  0.32047464    -0.07400
N436        N  0.46979342  0.97779090  0.49507499    -0.26100
H437        H  0.99102928  0.88605746  0.41309993     0.06500
N438        N  0.10555373  0.57000473  0.34109303    -0.47300
H439        H  0.42122502  0.89973691  0.28838077     0.06500
C440        C  0.35092562  0.93707239  0.43705622     0.42200
C441        C  0.02843077  0.52498474  0.27012655    -0.06800
Co442      Co  0.44026437  0.97621315  0.34637179     0.73800
N443        N  0.44062182  0.87953508  0.38226082    -0.47000
C444        C  0.05764936  0.63972396  0.45169392     0.42400
N445        N  0.41865779  0.53514356  0.31084859    -0.47000
Co446      Co  0.45653600  0.94494931  0.44067614     0.73900
C447        C  0.45060060  0.96922620  0.53116373    -0.07400
C448        C  0.11862942  0.55179852  0.40251267    -0.06900
N449        N  0.48111743  0.56185167  0.31896278    -0.26400
N450        N  0.07118816  0.97283074  0.41859823    -0.47200
H451        H  0.06864612  0.61063139  0.50689780     0.06400
C452        C  0.36609836  0.95290871  0.39564825    -0.07300
Cl453      Cl  0.49467924  0.50301802  0.36699818    -0.50300
C454        C  0.43137098  0.86865716  0.34188381     0.42200
H455        H  0.49906513  0.62139533  0.32017933     0.06400
N456        N  0.37752636  0.93269674  0.45669116    -0.47000
C457        C  0.49422589  0.53757904  0.59071765    -0.26700
C458        C  0.47460677  0.50107262  0.57181135    -0.14800
C459        C  0.46512503  0.96902989  0.63129060     0.35800
C460        C  0.46788114  0.97254064  0.67488602    -0.26200
C461        C  0.48121274  0.50912054  0.66019440    -0.15400
C462        C  0.49790729  0.54205168  0.63427616     0.36900
N463        N  0.06294764  0.55042092  0.68988805    -0.89700
H464        H  0.04646277  0.54089453  0.61094913     0.18000
H465        H  0.46120117  0.94761062  0.69321704     0.18000
N466        N  0.45428196  0.93264863  0.61363003    -0.88700
H467        H  0.06387309  0.53168201  0.71118684     0.35400
H468        H  0.07049391  0.57615020  0.70453418     0.40500
H469        H  0.47531611  0.93669398  0.59246204     0.40100
H470        H  0.42775502  0.92089652  0.59824134     0.35000
C471        C  0.48840011  0.96446806  0.17605131    -0.26700
C472        C  0.51314685  0.00049277  0.19501066    -0.14800
C473        C  0.53481600  0.53678414  0.13645295     0.35800
C474        C  0.53304829  0.53296253  0.09264488    -0.26200
C475        C  0.50961464  0.99205868  0.10680646    -0.15400
C476        C  0.48658957  0.95990450  0.13241711     0.36900
N477        N  0.46127049  0.92254969  0.11458615    -0.89700
H478        H  0.46965721  0.93965517  0.19517448     0.18000
H479        H  0.05347045  0.52474342  0.11106642     0.18000
N480        N  0.06938085  0.53764723  0.19143051    -0.88700
H481        H  0.94189269  0.91069464  0.07519052     0.35400
H482        H  0.46900980  0.90407112  0.12671316     0.40500
H483        H  0.53930146  0.58120824  0.16804370     0.40100
H484        H  0.57381793  0.59511552  0.13239664     0.35000
C485        C  0.07899981  0.74094712  0.45293513    -0.26700
C486        C  0.11118256  0.75965771  0.48006107    -0.14800
C487        C  0.12281329  0.73739818  0.50147424     0.35800
C488        C  0.10349376  0.69784924  0.49367971    -0.26200
C489        C  0.07320853  0.67991348  0.46426734    -0.15400
C490        C  0.06018325  0.70149967  0.44470618     0.36900
N491        N  0.02794439  0.68350351  0.41624505    -0.89700
H492        H  0.06919249  0.75722034  0.43658775     0.18000
H493        H  0.11355930  0.68150005  0.50930755     0.18000
N494        N  0.15393608  0.75388040  0.53131114    -0.88700
H495        H  0.03703901  0.69720817  0.38729515     0.35400
H496        H  0.00688420  0.68790921  0.42754637     0.40500
H497        H  0.14905560  0.76929417  0.55354518     0.40100
H498        H  0.17958778  0.77249324  0.51578477     0.35000
C499        C  0.24933712  0.91511879  0.44778217    -0.26700
C500        C  0.23368991  0.88486821  0.47666098    -0.14800
C501        C  0.25808140  0.87519788  0.49632727     0.35800
C502        C  0.29679341  0.89372558  0.48426017    -0.26200
C503        C  0.31159161  0.92188808  0.45281883    -0.15400
C504        C  0.28789880  0.93374515  0.43590017     0.36900
N505        N  0.30267144  0.96475372  0.40673439    -0.89700
H506        H  0.23122616  0.92355587  0.43293214     0.18000
H507        H  0.31490314  0.88507021  0.49862318     0.18000
N508        N  0.24378772  0.84681787  0.52860400    -0.88700
H509        H  0.29896619  0.98590653  0.41926937     0.35400
H510        H  0.28622228  0.95442975  0.37915549     0.40500
H511        H  0.26011131  0.85981778  0.55578716     0.40100
H512        H  0.24843281  0.82534074  0.51954286     0.35000
C513        C  0.05411565  0.87923577  0.45296214    -0.26700
C514        C  0.07538288  0.91573934  0.43456789    -0.14800
C515        C  0.11556118  0.93399404  0.43083186     0.35800
C516        C  0.13364996  0.91542694  0.44513788    -0.26200
C517        C  0.11241671  0.87859251  0.46311747    -0.15400
C518        C  0.07212570  0.86056754  0.46761347     0.36900
N519        N  0.04957381  0.82360128  0.48724025    -0.89700
H520        H  0.02331050  0.86533381  0.45670106     0.18000
H521        H  0.16449395  0.92974657  0.44104170     0.18000
N522        N  0.13806151  0.97093496  0.41148348    -0.88700
H523        H  0.02037004  0.81417722  0.48730318     0.35400
H524        H  0.05842347  0.82698000  0.51859243     0.40500
H525        H  0.15203778  0.96836356  0.38578536     0.40100
H526        H  0.15914263  0.98986781  0.43298159     0.35000
C527        C  0.11978049  0.73254470  0.81038847    -0.26700
C528        C  0.10946402  0.75570346  0.83065225    -0.14800
C529        C  0.08131473  0.73987347  0.86209769     0.35800
C530        C  0.06434519  0.70104590  0.87295603    -0.26200
C531        C  0.07555685  0.67811069  0.85355813    -0.15400
C532        C  0.10318916  0.69402718  0.82148948     0.36900
N533        N  0.11580665  0.67182616  0.80122956    -0.89700
H534        H  0.14178970  0.74478688  0.78657174     0.18000
H535        H  0.04301608  0.68900498  0.89741695     0.18000
N536        N  0.07143276  0.76364276  0.88420291    -0.88700
H537        H  0.14557528  0.68562426  0.80600148     0.35400
H538        H  0.11060438  0.67153508  0.76908833     0.40500
H539        H  0.09592539  0.78431579  0.90094304     0.40100
H540        H  0.05018196  0.74751941  0.90634991     0.35000
C541        C  0.29570828  0.87839985  0.82129222    -0.26700
C542        C  0.31435988  0.91363285  0.84275316    -0.14800
C543        C  0.29348760  0.93026106  0.85418853     0.35800
C544        C  0.25431401  0.91110704  0.84441282    -0.26200
C545        C  0.23522152  0.87511687  0.82433235    -0.15400
C546        C  0.25620258  0.85879943  0.81236250     0.36900
N547        N  0.23760983  0.82252678  0.79097944    -0.89700
H548        H  0.31155489  0.86540380  0.81252407     0.18000
H549        H  0.23846711  0.92389388  0.85395598     0.18000
N550        N  0.31132107  0.96664237  0.87529518    -0.88700
H551        H  0.24159357  0.80367494  0.80886318     0.35400
H552        H  0.25131115  0.82655906  0.76234288     0.40500
H553        H  0.33470109  0.98710047  0.85761489     0.40100
H554        H  0.32141451  0.96434410  0.90456996     0.35000
C555        C  0.12189363  0.93942975  0.80942377    -0.26700
C556        C  0.08247322  0.92028016  0.79974641    -0.14800
C557        C  0.06147305  0.88020872  0.79257072     0.35800
C558        C  0.07989815  0.86004694  0.79643735    -0.26200
C559        C  0.11920215  0.87904218  0.80705201    -0.15400
C560        C  0.14040500  0.91940985  0.81319501     0.36900
N561        N  0.18055048  0.94038891  0.82429909    -0.89700
H562        H  0.13861134  0.97012478  0.81509878     0.18000
H563        H  0.06317759  0.82928051  0.79097550     0.18000
N564        N  0.02147345  0.85973710  0.78100599    -0.88700
H565        H  0.18417772  0.95427837  0.85291380     0.35400
H566        H  0.19565801  0.96140963  0.80157557     0.40500
H567        H  0.00609409  0.83815947  0.80307149     0.40100
H568        H  0.01814666  0.84649425  0.75203586     0.35000
C569        C  0.35709684  0.59489892  0.29471510    -0.26700
C570        C  0.37480196  0.63176170  0.31231769    -0.14800
C571        C  0.41243011  0.64922793  0.32973670     0.35800
C572        C  0.43101608  0.62939748  0.32940856    -0.26200
C573        C  0.41338208  0.59259229  0.31173268    -0.15400
C574        C  0.37592620  0.57522542  0.29402839     0.36900
N575        N  0.35647918  0.53815176  0.27433807    -0.89700
H576        H  0.32843914  0.58131525  0.28099675     0.18000
H577        H  0.45945598  0.64297899  0.34354888     0.18000
N578        N  0.43232294  0.68650888  0.34898719    -0.88700
H579        H  0.35126570  0.51746879  0.29672734     0.35400
H580        H  0.37404642  0.53829358  0.25086175     0.40500
H581        H  0.41486350  0.68713145  0.37207313     0.40100
H582        H  0.43835564  0.70706986  0.32614399     0.35000
C583        C  0.41003252  0.76827117  0.33531753    -0.26700
C584        C  0.37444428  0.74931455  0.31385976    -0.14800
C585        C  0.36007547  0.77080259  0.29721590     0.35800
C586        C  0.38063474  0.81062463  0.30394198    -0.26200
C587        C  0.41482273  0.82895771  0.32788289    -0.15400
C588        C  0.43013652  0.80780727  0.34270503     0.36900
N589        N  0.46573238  0.82631045  0.36596051    -0.89700
H590        H  0.42148379  0.75216497  0.34834540     0.18000
H591        H  0.36866096  0.82677870  0.29242167     0.18000
N592        N  0.32454618  0.75229216  0.27393200    -0.88700
H593        H  0.48490826  0.82143539  0.35032983     0.35400
H594        H  0.46043489  0.81330883  0.39533202     0.40500
H595        H  0.33010378  0.76473547  0.24423730     0.40100
H596        H  0.30565567  0.75789860  0.28899622     0.35000
C597        C  0.19644280  0.57367622  0.36482900    -0.26700
C598        C  0.17341025  0.58577611  0.34713698    -0.14800
C599        C  0.19001395  0.61682624  0.31887057     0.35800
C600        C  0.22944915  0.63607805  0.31023706    -0.26200
C601        C  0.25264434  0.62453539  0.32868381    -0.15400
C602        C  0.23577264  0.59261836  0.35577566     0.36900
N603        N  0.25865734  0.58023954  0.37551605    -0.89700
H604        H  0.18405200  0.54970810  0.38634627     0.18000
H605        H  0.24203812  0.66037988  0.28913614     0.18000
N606        N  0.16738586  0.62981712  0.29985394    -0.88700
H607        H  0.24696251  0.55146150  0.36736858     0.35400
H608        H  0.25642761  0.58171363  0.40793979     0.40500
H609        H  0.16913825  0.62828373  0.26736361     0.40100
H610        H  0.17959314  0.65865153  0.30811186     0.35000
C611        C  0.37129573  0.56202984  0.96342145    -0.26700
C612        C  0.40669031  0.58242716  0.94274859    -0.14800
C613        C  0.42388347  0.62198393  0.93520725     0.35800
C614        C  0.40531753  0.64031676  0.94805041    -0.26200
C615        C  0.36958655  0.61988038  0.96826056    -0.15400
C616        C  0.35276498  0.58035830  0.97648161     0.36900
N617        N  0.31719421  0.55872776  0.99859990    -0.89700
H618        H  0.35806450  0.53177486  0.97019284     0.18000
H619        H  0.41861574  0.67055401  0.94105203     0.18000
N620        N  0.45970221  0.64351664  0.91351566    -0.88700
H621        H  0.32204556  0.54729952  0.02542246     0.35400
H622        H  0.29731860  0.53583825  0.97948509     0.40500
H623        H  0.47950270  0.66621642  0.93288156     0.40100
H624        H  0.45527674  0.65522518  0.88666337     0.35000
C625        C  0.40855614  0.75803336  0.95736586    -0.26700
C626        C  0.37263651  0.74010130  0.97745071    -0.14800
C627        C  0.35862570  0.76326046  0.99025497     0.35800
C628        C  0.37994451  0.80267109  0.98174650    -0.26200
C629        C  0.41437001  0.81969818  0.95930329    -0.15400
C630        C  0.42933292  0.79737487  0.94787758     0.36900
N631        N  0.46538633  0.81463215  0.92631900    -0.89700
H632        H  0.42007256  0.74112038  0.94753003     0.18000
H633        H  0.36831809  0.81970429  0.99080642     0.18000
N634        N  0.32272586  0.74791201  0.01125347    -0.88700
H635        H  0.47223605  0.79418949  0.91978832     0.35400
H636        H  0.48692085  0.83482735  0.94655235     0.40500
H637        H  0.32248378  0.73274341  0.03759677     0.40100
H638        H  0.30036562  0.72956680  0.99069198     0.35000
C639        C  0.23023021  0.58062627  0.95909826    -0.26700
C640        C  0.24889851  0.61458498  0.98314011    -0.14800
C641        C  0.22667554  0.62658892  0.00294135     0.35800
C642        C  0.18656773  0.60532081  0.99723081    -0.26200
C643        C  0.16839543  0.57278905  0.97117967    -0.15400
C644        C  0.19032796  0.55997919  0.95256357     0.36900
N645        N  0.17223836  0.52639509  0.92637327    -0.89700
H646        H  0.24678447  0.57085036  0.94369666     0.18000
H647        H  0.16995495  0.61555542  0.01148773     0.18000
N648        N  0.24459038  0.66037783  0.02867257    -0.88700
H649        H  0.17834447  0.50682946  0.93892674     0.35400
H650        H  0.18462952  0.53435511  0.89673360     0.40500
H651        H  0.23306429  0.65240071  0.05866122     0.40100
H652        H  0.23709370  0.67905948  0.01654637     0.35000
C653        C  0.85120089  0.13883518  0.97791237     0.79800
N654        N  0.87114749  0.17776537  0.97979871    -0.78500
C655        C  0.85285897  0.19653281  0.98619031     0.82300
N656        N  0.81388869  0.17583160  0.98992515    -0.78400
C657        C  0.79355026  0.13680068  0.98834598     0.82400
N658        N  0.81241457  0.11871477  0.98187830    -0.80200
C659        C  0.84960262  0.14813724  0.30034825     0.79800
N660        N  0.81073327  0.12653219  0.30544356    -0.78500
C661        C  0.79083471  0.14368453  0.31144336     0.82300
N662        N  0.80989257  0.18251893  0.31298220    -0.78400
C663        C  0.84859502  0.20429730  0.30835789     0.82400
N664        N  0.86813806  0.18692983  0.30212686    -0.80200
C665        C  0.63725685  0.35904489  0.81190941     0.79800
N666        N  0.67607736  0.37731885  0.81087220    -0.78500
C667        C  0.69355319  0.35764102  0.81507746     0.82300
N668        N  0.67170880  0.31901647  0.82029686    -0.78400
C669        C  0.63268282  0.30024782  0.82115621     0.82400
N670        N  0.61548283  0.32034994  0.81709621    -0.80200
C671        C  0.63267850  0.35728071  0.48216195     0.79800
N672        N  0.61354151  0.31874409  0.48695045    -0.78500
C673        C  0.63249642  0.30050242  0.49201354     0.82300
N674        N  0.67165225  0.32146387  0.49212294    -0.78400
C675        C  0.69150718  0.36033923  0.48807079     0.82400
N676        N  0.67178320  0.37788531  0.48260866    -0.80200
C677        C  0.63251378  0.06317677  0.95037298     0.42000
N678        N  0.58599782  0.04941409  0.90813780     0.00900
C679        C  0.90863936  0.02198608  0.91264702    -0.06900
H680        H  0.93177723  0.42641416  0.04186912     0.06400
C681        C  0.94032140  0.37136993  0.89919364    -0.07300
Co682      Co  0.52426599  0.05321096  0.95077586     0.74200
N683        N  0.96644740  0.47313847  0.00019110    -0.26500
Co684      Co  0.93316015  0.46101795  0.94604834     0.74100
C685        C  0.92478858  0.35564397  0.94049074     0.42200
N686        N  0.51836538  0.45453864  0.81272211     0.00600
N687        N  0.93330944  0.41145204  0.93509230     0.00700
N688        N  0.96461768  0.08013926  0.91512520    -0.47300
H689        H  0.60292681  0.07302456  0.00514778     0.06400
N690        N  0.50872428  0.01456485  0.99957430     0.00900
N691        N  0.90119102  0.45016892  0.89120662     0.00700
C692        C  0.85571175  0.43679336  0.84778797     0.42300
N693        N  0.55073737  0.48856784  0.81454654    -0.25900
C694        C  0.54271798  0.12491481  0.90006274    -0.06800
N695        N  0.62014192  0.05350763  0.91029531    -0.47000
N696        N  0.86692691  0.44557021  0.88815652    -0.47300
C697        C  0.55660473  0.13947190  0.85816426     0.42100
N698        N  0.97058303  0.05227727  0.90774669     0.00900
N699        N  0.51317403  0.01903288  0.80363799    -0.25900
N700        N  0.57565933  0.05631180  0.94427763    -0.26400
N701        N  0.98315584  0.48750969  0.80416935     0.00600
H702        H  0.54350755  0.06317065  0.75757377     0.06500
H703        H  0.88628917  0.42713853  0.79398179     0.06500
N704        N  0.93841324  0.01805905  0.90650168    -0.26500
N705        N  0.94485610  0.40593751  0.89893015    -0.26100
N706        N  0.54929606  0.08427675  0.86470379     0.00900
C707        C  0.99060294  0.47870547  0.06454423     0.42300
C708        C  0.58045305  0.48420881  0.81109723    -0.07400
N709        N  0.91265047  0.44404678  0.85536852    -0.26100
H710        H  0.94590302  0.35867549  0.87293048     0.06500
N711        N  0.52657481  0.02183162  0.03621099    -0.47300
H712        H  0.61055899  0.50718906  0.81121960     0.06500
C713        C  0.98778870  0.01258285  0.69542642     0.42200
C714        C  0.60325653  0.06541624  0.97285337    -0.06800
Co715      Co  0.55050569  0.03513767  0.85524651     0.73800
N716        N  0.52410520  0.42623873  0.80826604    -0.47000
C717        C  0.92613432  0.06328526  0.91823458     0.42400
N718        N  0.56041233  0.11292904  0.83813671    -0.47000
Co719      Co  0.96367375  0.44599802  0.85092092     0.73900
C720        C  0.88560005  0.43505568  0.82606035    -0.07400
C721        C  0.95816514  0.45367439  0.03625468    -0.06900
N722        N  0.53924908  0.09083684  0.90119441    -0.26400
N723        N  0.92068959  0.38189901  0.96070969    -0.47200
H724        H  0.87877717  0.99862413  0.91442331     0.06400
C725        C  0.51792000  0.03634715  0.76655784    -0.06700
Cl726      Cl  0.99550953  0.00382427  0.85495551    -0.50300
C727        C  0.56257149  0.44283859  0.80679751     0.42200
H728        H  0.53800613  0.13852306  0.92611637     0.06400
N729        N  0.96858859  0.48289848  0.76589929    -0.47000
C730        C  0.00128896  0.49087048  0.24501264     0.42000
N731        N  0.97660232  0.48804664  0.30493967     0.00900
C732        C  0.55502809  0.10867808  0.47792776    -0.06900
H733        H  0.63206786  0.04862080  0.42708876     0.06400
C734        C  0.51391071  0.41514293  0.41989536    -0.07300
Co735      Co  0.52746867  0.06203989  0.35788816     0.74200
N736        N  0.58361320  0.05020891  0.40366321    -0.26500
Co737      Co  0.54397348  0.03083958  0.45205715     0.74100
C738        C  0.55512814  0.43334342  0.42898921     0.42200
N739        N  0.94183521  0.40999048  0.39528136     0.00600
N740        N  0.54252922  0.47694762  0.42046489     0.00700
N741        N  0.54367340  0.12776451  0.41607522    -0.47300
H742        H  0.56291730  0.06201251  0.26373840     0.06400
N743        N  0.57705934  0.06191838  0.36800208     0.00900
N744        N  0.50317162  0.01065591  0.49969303     0.00700
C745        C  0.97986249  0.00416781  0.51504612     0.42300
N746        N  0.93438075  0.42083754  0.35957222    -0.25900
C747        C  0.97278261  0.08812770  0.30300548    -0.06800
N748        N  0.96980702  0.46969208  0.26887568    -0.47000
N749        N  0.50844092  0.02502102  0.53805323    -0.47300
C750        C  0.93120716  0.06987635  0.29709773     0.42100
N751        N  0.53903282  0.09361426  0.41283345     0.00900
N752        N  0.90074954  0.45685046  0.40354514    -0.25900
N753        N  0.51473041  0.02887135  0.30409105    -0.26400
N754        N  0.90755389  0.44598761  0.43968872     0.00600
H755        H  0.85272408  0.45807675  0.37899455     0.06500
H756        H  0.92939962  0.44778484  0.54551923     0.06500
N757        N  0.54568830  0.08190413  0.44850099    -0.26500
N758        N  0.50896824  0.44442534  0.41530728    -0.26100
N759        N  0.94418680  0.02635591  0.30252736     0.00900
C760        C  0.63295421  0.07099236  0.36058728     0.42300
C761        C  0.92358960  0.39322967  0.33100201    -0.07400
N762        N  0.97321840  0.48029826  0.50036483    -0.26100
H763        H  0.49102443  0.38508527  0.41899691     0.06500
N764        N  0.60585580  0.07478377  0.34156355    -0.47300
H765        H  0.91466692  0.39360961  0.29913635     0.06500
C766        C  0.85229743  0.43865274  0.44691200     0.42200
C767        C  0.53481192  0.03647742  0.26881452    -0.06800
Co768      Co  0.93793108  0.47229269  0.35356278     0.73800
N769        N  0.93640729  0.37540651  0.39292152    -0.47000
C770        C  0.55330828  0.13889292  0.45637667     0.42400
N771        N  0.91542838  0.03154721  0.29719240    -0.47000
Co772      Co  0.95693712  0.44452640  0.44828118     0.73900
C773        C  0.95594900  0.47399083  0.53746379    -0.07400
C774        C  0.61835170  0.05471401  0.40196857    -0.06900
N775        N  0.97789772  0.05895656  0.30612440    -0.26400
N776        N  0.57081546  0.47164872  0.42896546    -0.47200
H777        H  0.56320150  0.10759337  0.50993470     0.06400
C778        C  0.86654324  0.45322042  0.40502440    -0.07300
Cl779      Cl  0.99347559  0.00227112  0.35618374    -0.50300
C780        C  0.92545848  0.36349877  0.35301562     0.42200
H781        H  0.99564958  0.11816050  0.30444441     0.06400
N782        N  0.87898391  0.43427603  0.46638239    -0.47000
C783        C  0.98889775  0.03968573  0.58115401    -0.26700
C784        C  0.97893821  0.00519977  0.56115999    -0.14800
C785        C  0.95112162  0.49612823  0.63487157     0.35800
C786        C  0.95520498  0.49969558  0.67853492    -0.26200
C787        C  0.98472596  0.01134542  0.64930660    -0.15400
C788        C  0.99158482  0.04300670  0.62493794     0.36900
N789        N  0.49896231  0.07562536  0.68862663    -0.89700
H790        H  0.49378191  0.06131339  0.60777327     0.18000
H791        H  0.92951454  0.48774434  0.69738395     0.18000
N792        N  0.91303678  0.47806689  0.61740924    -0.88700
H793        H  0.52497977  0.08710354  0.70498916     0.35400
H794        H  0.47743113  0.07061108  0.70962040     0.40500
H795        H  0.90539548  0.45175747  0.60428401     0.40100
H796        H  0.91271788  0.49586700  0.59432281     0.35000
C797        C  0.96759669  0.45393435  0.18018335    -0.26700
C798        C  0.00142193  0.48419383  0.19925563    -0.14800
C799        C  0.02635559  0.03593081  0.12580370     0.35800
C800        C  0.02554338  0.03340250  0.08205513    -0.26200
C801        C  0.99422851  0.47664458  0.11076981    -0.15400
C802        C  0.96367403  0.44990833  0.13644124     0.36900
N803        N  0.92815864  0.41933311  0.11874569    -0.89700
H804        H  0.94322293  0.43399544  0.19917505     0.18000
H805        H  0.55480395  0.05247027  0.10694025     0.18000
N806        N  0.56427856  0.06937267  0.18697942    -0.88700
H807        H  0.43576050  0.41479091  0.08933131     0.35400
H808        H  0.92338663  0.39330642  0.12990552     0.40500
H809        H  0.03027906  0.08646826  0.13380413     0.40100
H810        H  0.07284864  0.08935319  0.13610077     0.35000
C811        C  0.57716132  0.24056661  0.46242648    -0.26700
C812        C  0.61031037  0.25809279  0.48825039    -0.14800
C813        C  0.62193062  0.23487197  0.50719599     0.35800
C814        C  0.60112050  0.19539261  0.49882609    -0.26200
C815        C  0.56975235  0.17867361  0.47067338    -0.15400
C816        C  0.55702574  0.20126218  0.45309905     0.36900
N817        N  0.52433242  0.18441828  0.42497059    -0.89700
H818        H  0.56786421  0.25787256  0.44760142     0.18000
H819        H  0.61110901  0.17820508  0.51248197     0.18000
N820        N  0.65485989  0.25036454  0.53446541    -0.88700
H821        H  0.51908467  0.20515083  0.41431054     0.35400
H822        H  0.50010559  0.16443586  0.44194850     0.40500
H823        H  0.65223718  0.26624390  0.55809831     0.40100
H824        H  0.67951394  0.26842154  0.51713325     0.35000
C825        C  0.75022294  0.41503255  0.45622611    -0.26700
C826        C  0.73377114  0.38272732  0.48238376    -0.14800
C827        C  0.75769035  0.37158082  0.50039099     0.35800
C828        C  0.79684482  0.39139040  0.48999759    -0.26200
C829        C  0.81256839  0.42210424  0.46169093    -0.15400
C830        C  0.78924321  0.43479480  0.44591095     0.36900
N831        N  0.80495993  0.46785387  0.41953653    -0.89700
H832        H  0.73254156  0.42450393  0.44252738     0.18000
H833        H  0.81461018  0.38174873  0.50303753     0.18000
N834        N  0.74252067  0.34033918  0.52930380    -0.88700
H835        H  0.80057465  0.48791534  0.43386366     0.35400
H836        H  0.78957340  0.45947245  0.39118778     0.40500
H837        H  0.75774210  0.35083955  0.55758389     0.40100
H838        H  0.74786438  0.32005341  0.51753921     0.35000
C839        C  0.55493002  0.37419469  0.44381498    -0.26700
C840        C  0.57541982  0.41442416  0.44265368    -0.14800
C841        C  0.61439775  0.43568847  0.45584530     0.35800
C842        C  0.63196460  0.41642984  0.46960415    -0.26200
C843        C  0.61150202  0.37607251  0.47087500    -0.15400
C844        C  0.57210772  0.35472718  0.45825958     0.36900
N845        N  0.54950170  0.31340652  0.45946765    -0.89700
H846        H  0.52505215  0.35749776  0.43382107     0.18000
H847        H  0.66203215  0.43342745  0.47913968     0.18000
N848        N  0.63648160  0.47686786  0.45537932    -0.88700
H849        H  0.52217906  0.30237578  0.44609564     0.35400
H850        H  0.54490516  0.30540104  0.49095832     0.40500
H851        H  0.66034483  0.48612809  0.43624186     0.40100
H852        H  0.64656869  0.48672108  0.48581192     0.35000
C853        C  0.62057537  0.23606849  0.80654881    -0.26700
C854        C  0.60966605  0.25844418  0.82751277    -0.14800
C855        C  0.57866919  0.24087729  0.85569055     0.35800
C856        C  0.56045061  0.20138912  0.86362484    -0.26200
C857        C  0.57258960  0.17930200  0.84404527    -0.15400
C858        C  0.60212925  0.19668284  0.81420673     0.36900
N859        N  0.61461961  0.17493993  0.79271584    -0.89700
H860        H  0.64406154  0.24939211  0.78447706     0.18000
H861        H  0.53743641  0.18809043  0.88612922     0.18000
N862        N  0.56685014  0.26330180  0.87735029    -0.88700
H863        H  0.64394498  0.18730930  0.79928616     0.35400
H864        H  0.61142297  0.17730780  0.76055136     0.40500
H865        H  0.58961147  0.28258120  0.89705586     0.40100
H866        H  0.54341853  0.24581285  0.89667993     0.35000
C867        C  0.79639268  0.38202663  0.81668729    -0.26700
C868        C  0.81562405  0.41904052  0.83416287    -0.14800
C869        C  0.79532446  0.43697101  0.84185050     0.35800
C870        C  0.75586372  0.41698705  0.83349892    -0.26200
C871        C  0.73590899  0.37893112  0.81842648    -0.15400
C872        C  0.75660306  0.36166295  0.80907629     0.36900
N873        N  0.73741901  0.32350999  0.79211899    -0.89700
H874        H  0.81195442  0.36815986  0.81064744     0.18000
H875        H  0.74055919  0.43089243  0.84060744     0.18000
N876        N  0.81403836  0.47535762  0.85812816    -0.88700
H877        H  0.74215550  0.30660810  0.81253097     0.35400
H878        H  0.75008262  0.32470531  0.76349965     0.40500
H879        H  0.83658374  0.49363838  0.83819665     0.40100
H880        H  0.82560502  0.47620841  0.88766110     0.35000
C881        C  0.61980550  0.43973062  0.82096755    -0.26700
C882        C  0.58191710  0.42172504  0.80572335    -0.14800
C883        C  0.56274897  0.38351562  0.79107281     0.35800
C884        C  0.58142748  0.36361239  0.79304088    -0.26200
C885        C  0.61909481  0.38136125  0.80910099    -0.15400
C886        C  0.63854407  0.41997152  0.82289207     0.36900
N887        N  0.67679045  0.43896184  0.84024486    -0.89700
H888        H  0.63479324  0.46897828  0.83265640     0.18000
H889        H  0.56638875  0.33418602  0.78179997     0.18000
N890        N  0.52453526  0.36492867  0.77374700    -0.88700
H891        H  0.67615219  0.44773275  0.87073918     0.35400
H892        H  0.69455128  0.46355062  0.82250777     0.40500
H893        H  0.50668300  0.34019671  0.79121471     0.40100
H894        H  0.52518554  0.35645519  0.74310173     0.35000
C895        C  0.85084718  0.08931958  0.28929562    -0.26700
C896        C  0.87155001  0.12928478  0.29601285    -0.14800
C897        C  0.91231452  0.14942818  0.30035228     0.35800
C898        C  0.93054586  0.12927803  0.29940790    -0.26200
C899        C  0.90972289  0.08922677  0.29465515    -0.15400
C900        C  0.86923356  0.06915057  0.28877734     0.36900
N901        N  0.84571730  0.02839277  0.28260186    -0.89700
H902        H  0.81979831  0.07317156  0.28519127     0.18000
H903        H  0.96151138  0.14559242  0.30360414     0.18000
N904        N  0.93641792  0.19007379  0.30717205    -0.88700
H905        H  0.84801328  0.01488092  0.30909501     0.35400
H906        H  0.85547065  0.02114002  0.25636334     0.40500
H907        H  0.92852131  0.19701183  0.33507280     0.40100
H908        H  0.93353947  0.20442486  0.28184264     0.35000
C909        C  0.90586010  0.26422844  0.33612366    -0.26700
C910        C  0.86974443  0.24601744  0.31570735    -0.14800
C911        C  0.85324774  0.26738089  0.30572565     0.35800
C912        C  0.87258247  0.30614012  0.31711582    -0.26200
C913        C  0.90780593  0.32374326  0.33897372    -0.15400
C914        C  0.92481278  0.30285622  0.34819850     0.36900
N915        N  0.96128107  0.32081156  0.36964771    -0.89700
H916        H  0.91879688  0.24816166  0.34430443     0.18000
H917        H  0.85934083  0.32217311  0.30994462     0.18000
N918        N  0.81690966  0.24988010  0.28408865    -0.88700
H919        H  0.98051439  0.31858643  0.35063824     0.35400
H920        H  0.95766311  0.30545025  0.39709669     0.40500
H921        H  0.82092716  0.26515056  0.25646586     0.40100
H922        H  0.79785935  0.25262922  0.30283621     0.35000
C923        C  0.69523346  0.07463893  0.36198069    -0.26700
C924        C  0.67211690  0.08670747  0.34434293    -0.14800
C925        C  0.68755644  0.11516549  0.31293216     0.35800
C926        C  0.72600493  0.13208079  0.30124109    -0.26200
C927        C  0.74936948  0.12096233  0.31996032    -0.15400
C928        C  0.73372583  0.09154555  0.35003902     0.36900
N929        N  0.75735882  0.08027384  0.37018043    -0.89700
H930        H  0.68377137  0.05265291  0.38584939     0.18000
H931        H  0.73799611  0.15484537  0.27817831     0.18000
N932        N  0.66497670  0.12826059  0.29398433    -0.88700
H933        H  0.74463361  0.05080297  0.36516873     0.35400
H934        H  0.75744800  0.08486552  0.40237145     0.40500
H935        H  0.66418081  0.12393182  0.26165868     0.40100
H936        H  0.67887858  0.15780754  0.29954420     0.35000
C937        C  0.87048244  0.06110891  0.95066844    -0.26700
C938        C  0.90725534  0.08293346  0.93308784    -0.14800
C939        C  0.92598336  0.12324615  0.93159316     0.35800
C940        C  0.90768307  0.14088325  0.94751579    -0.26200
C941        C  0.87071490  0.11907829  0.96495609    -0.15400
C942        C  0.85223000  0.07868055  0.96685131     0.36900
N943        N  0.81515417  0.05521290  0.98562651    -0.89700
H944        H  0.85585304  0.03016931  0.95279657     0.18000
H945        H  0.92238237  0.17185576  0.94528676     0.18000
N946        N  0.96331854  0.14646017  0.91330375    -0.88700
H947        H  0.81767546  0.03989400  0.01016887     0.35400
H948        H  0.79616171  0.03542124  0.96320021     0.40500
H949        H  0.98215284  0.16607570  0.93594732     0.40100
H950        H  0.96130877  0.16201340  0.88866774     0.35000
C951        C  0.90398637  0.25467059  0.95030988    -0.26700
C952        C  0.87422755  0.23861473  0.97974365    -0.14800
C953        C  0.86468406  0.26280488  0.99995920     0.35800
C954        C  0.88259267  0.30123164  0.98774922    -0.26200
C955        C  0.91024201  0.31639003  0.95597580    -0.15400
C956        C  0.92248550  0.29333892  0.93868502     0.36900
N957        N  0.95369796  0.30911161  0.90955606    -0.89700
H958        H  0.91229424  0.23673595  0.93529625     0.18000
H959        H  0.87393844  0.31901183  0.00246542     0.18000
N960        N  0.83757658  0.24956050  0.03334903    -0.88700
H961        H  0.95886425  0.28818415  0.89964810     0.35400
H962        H  0.97860209  0.33008949  0.92547921     0.40500
H963        H  0.84569219  0.23697468  0.05617064     0.40100
H964        H  0.81032489  0.22903989  0.02160586     0.35000
C965        C  0.73298197  0.08245138  0.95776688    -0.26700
C966        C  0.75111431  0.11457780  0.98467900    -0.14800
C967        C  0.72879245  0.12667249  0.00395289     0.35800
C968        C  0.68944367  0.10798135  0.99420370    -0.26200
C969        C  0.67216293  0.07792402  0.96474422    -0.15400
C970        C  0.69387529  0.06438428  0.94729595     0.36900
N971        N  0.67648020  0.03269424  0.91846524    -0.89700
H972        H  0.74958128  0.07249640  0.94284791     0.18000
H973        H  0.67295597  0.11847759  0.00817927     0.18000
N974        N  0.74593923  0.15815555  0.03297984    -0.88700
H975        H  0.67989088  0.01116388  0.93060450     0.35400
H976        H  0.69145992  0.04200867  0.89029974     0.40500
H977        H  0.73170087  0.14822408  0.06148720     0.40100
H978        H  0.74106982  0.17899335  0.02171273     0.35000
C979        C  0.85245886  0.64624815  0.95532113     0.79800
N980        N  0.87395331  0.68529360  0.95226849    -0.78500
C981        C  0.85645404  0.70537163  0.94964886     0.82300
N982        N  0.81737009  0.68602316  0.94928690    -0.78400
C983        C  0.79580029  0.64720775  0.95232595     0.82400
N984        N  0.81348873  0.62761088  0.95515580    -0.80200
C985        C  0.85482794  0.64676188  0.28741175     0.79800
N986        N  0.81597558  0.62717279  0.29068872    -0.78500
C987        C  0.79676346  0.64521702  0.28715513     0.82300
N988        N  0.81670254  0.68361432  0.27995467    -0.78400
C989        C  0.85570408  0.70378741  0.27640465     0.82400
N990        N  0.87453813  0.68521757  0.28076882    -0.80200
C991        C  0.63751926  0.86151577  0.78669075     0.79800
N992        N  0.67630172  0.88054988  0.78293909    -0.78500
C993        C  0.69424708  0.86132711  0.77800496     0.82300
N994        N  0.67288675  0.82229395  0.77801130    -0.78400
C995        C  0.63396449  0.80268807  0.78189354     0.82400
N996        N  0.61667227  0.82258260  0.78607146    -0.80200
C997        C  0.63775487  0.85885587  0.45912491     0.79800
N998        N  0.61841962  0.81990362  0.46009186    -0.78500
C999        C  0.63739827  0.80150216  0.45758766     0.82300
N1000       N  0.67620177  0.82237582  0.45291825    -0.78400
C1001       C  0.69606993  0.86137086  0.45150475     0.82400
N1002       N  0.67664919  0.87940574  0.45429943    -0.80200
C1003       C  0.63421771  0.57235534  0.91467284     0.42000
N1004       N  0.58583992  0.55405955  0.87372470     0.00900
C1005       C  0.90611631  0.51766639  0.95772810    -0.06900
H1006       H  0.94444956  0.94176611  0.99814618     0.06400
C1007       C  0.94754454  0.87818459  0.85811506    -0.07300
Co1008     Co  0.52317205  0.55717172  0.91510354     0.74200
N1009       N  0.97551701  0.98565873  0.95204350    -0.26500
Co1010     Co  0.93918706  0.96859012  0.89977915     0.74100
C1011       C  0.93360114  0.86434347  0.90035618     0.42200
N1012       N  0.51786594  0.95133686  0.84554784     0.00600
N1013       N  0.94098177  0.91953361  0.89199982     0.00700
N1014       N  0.96347601  0.57405093  0.96528435    -0.47300
H1015       H  0.60469650  0.58303707  0.96902176     0.06400
N1016       N  0.50795924  0.51915468  0.96494274     0.00900
N1017       N  0.90448818  0.95348327  0.84660319     0.00700
C1018       C  0.85747296  0.93843146  0.80475055     0.42300
N1019       N  0.55030474  0.98533497  0.84684865    -0.25900
C1020       C  0.54201718  0.62823153  0.86141329    -0.06800
N1021       N  0.62087590  0.56034060  0.87536271    -0.47000
N1022       N  0.87015694  0.94881256  0.84449187    -0.47300
C1023       C  0.55731619  0.64191488  0.81961926     0.42100
N1024       N  0.96793221  0.54485178  0.96043209     0.00900
N1025       N  0.51361009  0.52099800  0.76931443    -0.25900
N1026       N  0.57559479  0.56176453  0.90944472    -0.26400
N1027       N  0.98334839  0.98850691  0.75636503     0.00600
H1028       H  0.54493309  0.56484600  0.72398371     0.06500
H1029       H  0.88659847  0.92734177  0.75037951     0.06500
N1030       N  0.93489787  0.51167887  0.95568692    -0.26500
N1031       N  0.95127907  0.91242412  0.85595822    -0.26100
N1032       N  0.54867444  0.58663649  0.82846447     0.00900
C1033       C  0.00287546  0.99683455  0.01524849     0.42300
C1034       C  0.57968334  0.98097602  0.84003561    -0.07400
N1035       N  0.91489507  0.94617623  0.81075272    -0.26100
H1036       H  0.95228219  0.86419072  0.83250241     0.06500
N1037       N  0.52542079  0.52718661  0.00195022    -0.47300
H1038       H  0.60963186  0.00415193  0.83850546     0.06500
C1039       C  0.99296974  0.51529328  0.74449553     0.42200
C1040       C  0.60442012  0.57374446  0.93731892    -0.06800
Co1041     Co  0.55037561  0.53800260  0.82102888     0.73800
N1042       N  0.52324698  0.92318134  0.83763494    -0.47000
C1043       C  0.92515572  0.55913155  0.96404059     0.42400
N1044       N  0.56105502  0.61486174  0.80114929    -0.47000
Co1045     Co  0.96695013  0.94988292  0.80565591     0.73900
C1046       C  0.88674686  0.93593549  0.78237447    -0.07400
C1047       C  0.96996355  0.96879157  0.98943743    -0.06900
N1048       N  0.53795143  0.59390223  0.86415052    -0.26400
N1049       N  0.92962646  0.89127724  0.91920686    -0.47200
H1050       H  0.87579595  0.49565125  0.95479701     0.06400
C1051       C  0.51907308  0.53806931  0.73211480    -0.06700
Cl1052     Cl  0.99151002  0.49673591  0.90447431    -0.50300
C1053       C  0.56161097  0.93962238  0.83398007     0.42200
H1054       H  0.53738067  0.64282025  0.88648103     0.06400
N1055       N  0.96597812  0.98129139  0.71940919    -0.47000
C1056       C  0.00627339  0.00312777  0.19615670     0.42000
N1057       N  0.98026874  0.99347537  0.25657355     0.00900
C1058       C  0.56115124  0.60894057  0.44620449    -0.06900
H1059       H  0.63392364  0.54622980  0.39568942     0.06400
C1060       C  0.51302697  0.91723091  0.45090406    -0.07300
Co1061     Co  0.53106087  0.56183868  0.32648840     0.74200
N1062       N  0.58620064  0.54819854  0.37119916    -0.26500
Co1063     Co  0.54684513  0.52931264  0.41954518     0.74100
C1064       C  0.55467083  0.93597100  0.45636399     0.42200
N1065       N  0.94544085  0.91186068  0.34448038     0.00600
N1066       N  0.54075714  0.97893598  0.45350186     0.00700
N1067       N  0.54989643  0.62814209  0.38442949    -0.47300
H1068       H  0.56448475  0.56198203  0.23114517     0.06400
N1069       N  0.58015994  0.56033414  0.33553938     0.00900
N1070       N  0.50573504  0.50906079  0.46655076     0.00700
C1071       C  0.98297030  0.50728539  0.56339010     0.42300
N1072       N  0.93784646  0.92274045  0.30881542    -0.25900
C1073       C  0.97236555  0.58631330  0.34109982    -0.06800
N1074       N  0.97440269  0.97880490  0.21832950    -0.47000
N1075       N  0.51025684  0.52345673  0.50470519    -0.47300
C1076       C  0.93098084  0.56820310  0.33438972     0.42100
N1077       N  0.54419514  0.59355480  0.38139019     0.00900
N1078       N  0.90177422  0.95628073  0.35425000    -0.25900
N1079       N  0.51667253  0.52899818  0.27217736    -0.26400
N1080       N  0.90893149  0.94508964  0.38992028     0.00600
H1081       H  0.85344576  0.95843840  0.33180755     0.06500
H1082       H  0.92552882  0.94697695  0.49376330     0.06500
N1083       N  0.55051946  0.58154848  0.41698949    -0.26500
N1084       N  0.50726184  0.94614841  0.44925161    -0.26100
N1085       N  0.94268705  0.52469204  0.34793818     0.00900
C1086       C  0.63618770  0.56939350  0.32918740     0.42300
C1087       C  0.92797257  0.89531262  0.27994964    -0.07400
N1088       N  0.97290833  0.97887136  0.45178699    -0.26100
H1089       H  0.49086179  0.88703672  0.44787095     0.06500
N1090       N  0.60950703  0.57367408  0.30971195    -0.47300
H1091       H  0.91924396  0.89567285  0.24798974     0.06500
C1092       C  0.85393981  0.93785926  0.39890648     0.42200
C1093       C  0.53612182  0.53682498  0.23640304    -0.06800
Co1094     Co  0.94024179  0.97420816  0.30480440     0.73800
N1095       N  0.94136948  0.87794080  0.34176399    -0.47000
C1096       C  0.56011866  0.63960745  0.42448109     0.42400
N1097       N  0.91447842  0.52997410  0.33881209    -0.47000
Co1098     Co  0.95855969  0.94458168  0.39867365     0.73900
C1099       C  0.95366024  0.97210002  0.48750623    -0.07400
C1100       C  0.62075313  0.55247960  0.37011323    -0.06900
N1101       N  0.97675021  0.55709074  0.34923587    -0.26400
N1102       N  0.56994471  0.97420913  0.45774389    -0.47200
H1103       H  0.56952208  0.60789433  0.47813740     0.06400
C1104       C  0.86750075  0.95268874  0.35682615    -0.07300
Cl1105     Cl  0.99183233  0.50111820  0.40331526    -0.50300
C1106       C  0.93092134  0.86592428  0.30185756     0.42200
H1107       H  0.99543687  0.61621912  0.33883689     0.06400
N1108       N  0.88089818  0.93336332  0.41723134    -0.47000
C1109       C  0.02064065  0.52949815  0.62944505    -0.26700
C1110       C  0.98427494  0.51076244  0.60973162    -0.14800
C1111       C  0.97182116  0.97352780  0.58576021     0.35800
C1112       C  0.97465073  0.97696585  0.62921868    -0.26200
C1113       C  0.99157181  0.51747776  0.69821134    -0.15400
C1114       C  0.02473976  0.53282865  0.67291730     0.36900
N1115       N  0.51865616  0.58039356  0.65069517    -0.89700
H1116       H  0.50793054  0.56308481  0.57134886     0.18000
H1117       H  0.96968250  0.95256963  0.64746346     0.18000
N1118       N  0.96351978  0.93805023  0.56780091    -0.88700
H1119       H  0.54508650  0.58666669  0.66270692     0.35400
H1120       H  0.50246031  0.58256880  0.67419960     0.40500
H1121       H  0.98498045  0.94377083  0.54638316     0.40100
H1122       H  0.93674087  0.92457908  0.55264141     0.35000
C1123       C  0.98966113  0.96628511  0.12948892    -0.26700
C1124       C  0.00817388  0.00204402  0.14997013    -0.14800
C1125       C  0.03309200  0.50859240  0.17367204     0.35800
C1126       C  0.02911003  0.50473291  0.13002833    -0.26200
C1127       C  0.00618554  0.99765873  0.06150460    -0.15400
C1128       C  0.98877300  0.96381574  0.08558740     0.36900
N1129       N  0.97063407  0.92690352  0.06575050    -0.89700
H1130       H  0.97576798  0.94005849  0.14766175     0.18000
H1131       H  0.54966952  0.55851912  0.07379781     0.18000
N1132       N  0.55805387  0.57430832  0.15511131    -0.88700
H1133       H  0.43322117  0.91262969  0.12419452     0.35400
H1134       H  0.98425877  0.91317973  0.07654590     0.40500
H1135       H  0.07624302  0.56428754  0.17982669     0.40100
H1136       H  0.09037782  0.53267054  0.18130543     0.35000
C1137       C  0.58243214  0.74102234  0.42827502    -0.26700
C1138       C  0.61532497  0.75915818  0.45424684    -0.14800
C1139       C  0.62688337  0.73651969  0.47480786     0.35800
C1140       C  0.60687846  0.69693304  0.46698581    -0.26200
C1141       C  0.57592512  0.67948217  0.43838249    -0.15400
C1142       C  0.56287821  0.70154099  0.41996979     0.36900
N1143       N  0.52995321  0.68398118  0.39245879    -0.89700
H1144       H  0.57273878  0.75781393  0.41288076     0.18000
H1145       H  0.61693117  0.68020211  0.48171867     0.18000
N1146       N  0.65863522  0.75276479  0.50379463    -0.88700
H1147       H  0.53847655  0.69769523  0.36346500     0.35400
H1148       H  0.50946739  0.68877877  0.40476010     0.40500
H1149       H  0.65435565  0.76821908  0.52656051     0.40100
H1150       H  0.68380359  0.77145699  0.48762346     0.35000
C1151       C  0.75339164  0.91666411  0.41755815    -0.26700
C1152       C  0.73781567  0.88362880  0.44255453    -0.14800
C1153       C  0.76193762  0.87115425  0.45632867     0.35800
C1154       C  0.80020125  0.89036398  0.44308420    -0.26200
C1155       C  0.81494755  0.92169178  0.41576777    -0.15400
C1156       C  0.79167524  0.93568550  0.40399009     0.36900
N1157       N  0.80674270  0.96922269  0.37847913    -0.89700
H1158       H  0.73544563  0.92702405  0.40717767     0.18000
H1159       H  0.81798519  0.87970833  0.45311226     0.18000
N1160       N  0.74782315  0.83900088  0.48380867    -0.88700
H1161       H  0.80428132  0.98965231  0.39492548     0.35400
H1162       H  0.78954652  0.96169754  0.35146615     0.40500
H1163       H  0.76481703  0.84829312  0.51105090     0.40100
H1164       H  0.75151064  0.81856796  0.46920329     0.35000
C1165       C  0.55744852  0.87822802  0.46877332    -0.26700
C1166       C  0.57680569  0.91731888  0.45866769    -0.14800
C1167       C  0.61662959  0.93755246  0.45046638     0.35800
C1168       C  0.63599519  0.91814979  0.45145145    -0.26200
C1169       C  0.61646967  0.87868366  0.46070424    -0.15400
C1170       C  0.57676714  0.85887221  0.47026738     0.36900
N1171       N  0.55573482  0.81917025  0.48195995    -0.89700
H1172       H  0.52704331  0.86239235  0.47604326     0.18000
H1173       H  0.66642014  0.93414568  0.44419064     0.18000
N1174       N  0.63744796  0.97755600  0.44007641    -0.88700
H1175       H  0.53277710  0.80390346  0.46079892     0.35400
H1176       H  0.54430713  0.81680857  0.51169766     0.40500
H1177       H  0.64953312  0.98088092  0.41054433     0.40100
H1178       H  0.65996554  0.99242416  0.46183216     0.35000
C1179       C  0.62753075  0.73957628  0.77348066    -0.26700
C1180       C  0.61139281  0.76035139  0.78658611    -0.14800
C1181       C  0.57548879  0.74064098  0.80723838     0.35800
C1182       C  0.55758524  0.70149237  0.81581447    -0.26200
C1183       C  0.57466060  0.68140560  0.80448437    -0.15400
C1184       C  0.60958469  0.70037300  0.78240039     0.36900
N1185       N  0.62805217  0.68061230  0.77104098    -0.89700
H1186       H  0.65489126  0.75402376  0.75745577     0.18000
H1187       H  0.53064370  0.68697329  0.83268050     0.18000
N1188       N  0.55777303  0.76034695  0.82150683    -0.88700
H1189       H  0.65536251  0.69477129  0.78526970     0.35400
H1190       H  0.63176396  0.68266780  0.73861700     0.40500
H1191       H  0.55459505  0.75704280  0.85395060     0.40100
H1192       H  0.53028984  0.74719171  0.80785783     0.35000
C1193       C  0.79733177  0.88597070  0.77193866    -0.26700
C1194       C  0.81714366  0.92183445  0.79207129    -0.14800
C1195       C  0.79722927  0.93958131  0.80295093     0.35800
C1196       C  0.75759634  0.92021112  0.79568141    -0.26200
C1197       C  0.73693815  0.88288252  0.77847517    -0.15400
C1198       C  0.75734026  0.86616378  0.76503935     0.36900
N1199       N  0.73747602  0.82899786  0.74516222    -0.89700
H1200       H  0.81279494  0.87256263  0.76324137     0.18000
H1201       H  0.74272784  0.93391918  0.80554844     0.18000
N1202       N  0.81644544  0.97718046  0.82145964    -0.88700
H1203       H  0.75668305  0.82069919  0.73793207     0.35400
H1204       H  0.72626959  0.83148809  0.71668331     0.40500
H1205       H  0.83896792  0.99626926  0.80194018     0.40100
H1206       H  0.82797595  0.97655715  0.85049143     0.35000
C1207       C  0.61961833  0.94081913  0.81120105    -0.26700
C1208       C  0.58040876  0.91926337  0.82134149    -0.14800
C1209       C  0.55984691  0.87886550  0.81843091     0.35800
C1210       C  0.57885304  0.86095956  0.80586669    -0.26200
C1211       C  0.61832227  0.88242098  0.79616983    -0.15400
C1212       C  0.63878165  0.92307048  0.79830401     0.36900
N1213       N  0.67886095  0.94643559  0.78752361    -0.89700
H1214       H  0.63562230  0.97184868  0.81276974     0.18000
H1215       H  0.56240823  0.82986438  0.80442414     0.18000
N1216       N  0.51979282  0.85568175  0.82871129    -0.88700
H1217       H  0.68978672  0.97557098  0.79268752     0.35400
H1218       H  0.68075316  0.94328029  0.75534284     0.40500
H1219       H  0.51658753  0.83707836  0.85284351     0.40100
H1220       H  0.50461408  0.83900391  0.80248358     0.35000
C1221       C  0.85436908  0.59132812  0.31797838    -0.26700
C1222       C  0.87499678  0.62665768  0.29677767    -0.14800
C1223       C  0.91397449  0.64156047  0.28640514     0.35800
C1224       C  0.93125841  0.62168531  0.29859281    -0.26200
C1225       C  0.91072638  0.58697638  0.32067218    -0.15400
C1226       C  0.87154573  0.57141071  0.32973196     0.36900
N1227       N  0.84860288  0.53609129  0.35197563    -0.89700
H1228       H  0.82454609  0.57902034  0.32636707     0.18000
H1229       H  0.96109009  0.63358079  0.29050242     0.18000
N1230       N  0.93672925  0.67623192  0.26302563    -0.88700
H1231       H  0.86227293  0.53813960  0.38051254     0.35400
H1232       H  0.84615873  0.51368502  0.33414494     0.40500
H1233       H  0.94095197  0.69947672  0.28070926     0.40100
H1234       H  0.92212530  0.67401947  0.23514322     0.35000
C1235       C  0.91352382  0.76663790  0.29686626    -0.26700
C1236       C  0.87790226  0.74626853  0.27552291    -0.14800
C1237       C  0.86254899  0.76669881  0.25797901     0.35800
C1238       C  0.88187914  0.80657482  0.26410718    -0.26200
C1239       C  0.91572734  0.82615803  0.28846972    -0.15400
C1240       C  0.93217332  0.80620314  0.30399447     0.36900
N1241       N  0.96737066  0.82590408  0.32792673    -0.89700
H1242       H  0.92589846  0.75153901  0.31045619     0.18000
H1243       H  0.86905265  0.82174320  0.25194262     0.18000
N1244       N  0.82699475  0.74702389  0.23472147    -0.88700
H1245       H  0.98747705  0.82201032  0.31296008     0.35400
H1246       H  0.96204535  0.81304133  0.35739574     0.40500
H1247       H  0.83218494  0.75905856  0.20483509     0.40100
H1248       H  0.80754556  0.75202574  0.24949161     0.35000
C1249       C  0.70024352  0.57787193  0.33727836    -0.26700
C1250       C  0.67630571  0.58657885  0.31518381    -0.14800
C1251       C  0.69188184  0.61329417  0.28203959     0.35800
C1252       C  0.73127314  0.63209003  0.27316051    -0.26200
C1253       C  0.75523863  0.62398561  0.29605318    -0.15400
C1254       C  0.73940667  0.59632296  0.32816851     0.36900
N1255       N  0.76323698  0.58794327  0.35286736    -0.89700
H1256       H  0.68886590  0.55709674  0.36238610     0.18000
H1257       H  0.74314921  0.65306991  0.24820715     0.18000
N1258       N  0.66814387  0.62199428  0.25769736    -0.88700
H1259       H  0.75219498  0.55853421  0.35017239     0.35400
H1260       H  0.76129541  0.59391956  0.38420012     0.40500
H1261       H  0.66968377  0.61576697  0.22633773     0.40100
H1262       H  0.67955890  0.65147291  0.26026938     0.35000
C1263       C  0.86908178  0.56434468  0.94806230    -0.26700
C1264       C  0.90706621  0.58186290  0.96302011    -0.14800
C1265       C  0.92716745  0.62082904  0.97547952     0.35800
C1266       C  0.90906479  0.64144905  0.97243141    -0.26200
C1267       C  0.87098077  0.62383758  0.95741631    -0.15400
C1268       C  0.85098815  0.58477418  0.94495122     0.36900
N1269       N  0.81257911  0.56572051  0.92802517    -0.89700
H1270       H  0.85322704  0.53467958  0.93775497     0.18000
H1271       H  0.92480191  0.67126051  0.98241130     0.18000
N1272       N  0.96573626  0.63952242  0.99178079    -0.88700
H1273       H  0.79475490  0.54184456  0.94667130     0.35400
H1274       H  0.81270812  0.55583090  0.89795134     0.40500
H1275       H  0.96607436  0.64959884  0.02189188     0.40100
H1276       H  0.98347279  0.66326317  0.97293405     0.35000
C1277       C  0.91071549  0.76261435  0.91475229    -0.26700
C1278       C  0.87928626  0.74734891  0.94195697    -0.14800
C1279       C  0.86897844  0.77219820  0.95897810     0.35800
C1280       C  0.88852288  0.81063228  0.94660079    -0.26200
C1281       C  0.91789882  0.82511608  0.91687545    -0.15400
C1282       C  0.93021253  0.80126084  0.90209400     0.36900
N1283       N  0.96233897  0.81620995  0.87430874    -0.89700
H1284       H  0.91926618  0.74399759  0.90211688     0.18000
H1285       H  0.87937604  0.82883053  0.95904729     0.18000
N1286       N  0.83887049  0.75944430  0.98891578    -0.88700
H1287       H  0.96760047  0.79490071  0.86632540     0.35400
H1288       H  0.98678514  0.83748560  0.89058172     0.40500
H1289       H  0.84384010  0.74585290  0.01351265     0.40100
H1290       H  0.81256360  0.74000345  0.97438004     0.35000
C1291       C  0.73572252  0.59388733  0.92014904    -0.26700
C1292       C  0.75368530  0.62607137  0.94679545    -0.14800
C1293       C  0.73149961  0.63857608  0.96548888     0.35800
C1294       C  0.69201580  0.61953686  0.95617842    -0.26200
C1295       C  0.67451892  0.58866138  0.92775172    -0.15400
C1296       C  0.69647490  0.57539102  0.91011212     0.36900
N1297       N  0.67909196  0.54329639  0.88181719    -0.89700
H1298       H  0.75251626  0.58395653  0.90564356     0.18000
H1299       H  0.67544229  0.62999459  0.97002420     0.18000
N1300       N  0.74886651  0.67045034  0.99400556    -0.88700
H1301       H  0.68297417  0.52214962  0.89419841     0.35400
H1302       H  0.69371596  0.55235523  0.85342177     0.40500
H1303       H  0.73487206  0.66088794  0.02268415     0.40100
H1304       H  0.74385491  0.69110229  0.98244713     0.35000
loop_ 
_geom_bond_atom_site_label_1 
_geom_bond_atom_site_label_2 
_geom_bond_distance 
_geom_bond_site_symmetry_2 
_ccdc_geom_bond_type 
C1            N2   1.359       .  A
C1            N6   1.357       .  A
C1          C289   1.487       .  S
N2            C3   1.357       .  A
C3            N4   1.358       .  A
C3          C300   1.476       .  S
N4            C5   1.358       .  A
C5            N6   1.355       .  A
C5          C314   1.473       .  S
C7            N8   1.355       .  A
C7           N12   1.355       .  A
C7          C244   1.486       .  S
N8            C9   1.354       .  A
C9           N10   1.358       .  A
C9          C275   1.477       .  S
N10          C11   1.359       .  A
C11          N12   1.358       .  A
C11         C258   1.478       .  S
C13          N14   1.358       .  A
C13          N18   1.355       .  A
C13         C233   1.486       .  S
N14          C15   1.360       .  A
C15          N16   1.359       .  A
C15         C219   1.484       .  S
N16          C17   1.358       .  A
C17          N18   1.353       .  A
C17         C202   1.481       .  S
C19          N20   1.357       .  A
C19          N24   1.361       .  A
C19         C191   1.488       .  S
N20          C21   1.355       .  A
C21          N22   1.355       .  A
C21         C160   1.473       .  S
N22          C23   1.358       .  A
C23          N24   1.359       .  A
C23         C174   1.481       .  S
C25          N43   1.350       .  A
C25          C62   1.459       .  S
C25         C317   1.475       .  S
N26          N43   1.323       .  A
N26          N48   1.318       .  A
N26         Co63   2.082       .  S
C27          N52   1.340       .  A
C27          C65   1.464       .  S
C27          H72   1.081   1_545  S
H28          C69   1.080       .  S
C29          N53   1.336       .  A
C29          C33   1.461       .  S
C29          H58   1.080       .  S
Co30         N48   2.074       .  S
Co30         N38   2.082       .  S
Co30         N70   2.077       .  S
Co30        N698   2.072   1_455  S
Co30       Cl726   2.442   1_455  S
N31          C69   1.340   1_556  A
N31        N1016   1.318       .  A
N31         Co32   2.082       .  S
Co32         N35   2.088       .  S
Co32         N39   2.086       .  S
Co32        N378   2.076       .  S
Co32       Cl400   2.448       .  S
C33          N71   1.354       .  A
C33         C303   1.483       .  S
N34          N41   1.317       .  A
N34          N64   1.323       .  A
N34        Co719   2.079   1_455  S
N35          N53   1.318       .  A
N35          N71   1.325       .  A
N36          C65   1.348       .  A
N36          N46   1.322       .  A
H37          C62   1.081       .  S
N38          N59   1.323       .  A
N38        N1009   1.319   1_445  A
N39          N57   1.318       .  A
N39          N44   1.324       .  A
C40          N44   1.350       .  A
C40          C68   1.457       .  S
C40         C216   1.473       .  S
N41          C56   1.337       .  A
N41        Co389   2.070       .  S
C42          N70   1.337       .  A
C42          C45   1.459       .  S
C42          H76   1.082       .  S
C45          N66   1.349       .  A
C45         C205   1.472       .  S
N46          N52   1.318       .  A
N46        Co682   2.069       .  S
N47          C73   1.342       .  A
N47        N1027   1.318   1_445  A
N47         Co63   2.080       .  S
N48          C62   1.339       .  A
N49          N77   1.322       .  A
N49        N1025   1.316       .  A
N49         Co67   2.079       .  S
H50          C73   1.081       .  S
H51          C68   1.082       .  S
N52        Co358   2.083   1_545  S
N53         Co67   2.074       .  S
N54          N66   1.323       .  A
N54          N70   1.319       .  A
N54         Co63   2.076       .  S
C55        N1037   1.352       .  A
C55          C69   1.467       .  S
C55         C149   1.487       .  S
C56          C75   1.459       .  S
C56          H60   1.081       .  S
N57          C68   1.338       .  A
N57         Co67   2.068       .  S
N59        C1033   1.351   1_546  A
C61         N403   1.352   1_545  A
C61         C135   1.486       .  S
C61         C725   1.467       .  S
Co63        N367   2.079   1_545  S
Co63       Cl726   2.450   1_455  S
N64          C75   1.352       .  A
C65         C286   1.481       .  S
Co67        N686   2.066       .  S
Co67       Cl400   2.442       .  S
C73         C713   1.463   1_455  S
Cl74       Co682   2.440   1_565  S
Cl74       Co358   2.448       .  S
Cl74       Co715   2.449   1_565  S
Cl74       Co393   2.440       .  S
C75         C230   1.479       .  S
N77         C387   1.353       .  A
C78          N96   1.352       .  A
C78         C146   1.485       .  S
C78        C1093   1.464       .  S
N79          N96   1.324       .  A
N79        N1079   1.318       .  A
N79        Co116   2.086       .  S
C80         N105   1.337       .  A
C80         C118   1.459       .  S
C80         H125   1.081       .  S
H81         C122   1.082       .  S
C82         N106   1.338       .  A
C82          C86   1.461       .  S
C82         H111   1.081   1_455  S
Co83        N101   2.075       .  S
Co83         N91   2.072       .  S
Co83         N99   2.079       .  S
Co83        N775   2.068   1_455  S
Co83       Cl779   2.438   1_455  S
N84         C122   1.335       .  A
N84          N91   1.319       .  A
N84         Co85   2.073       .  S
Co85        N105   2.070       .  S
Co85         N92   2.081       .  S
Co85        N414   2.077   1_545  S
Co85       Cl779   2.449   1_455  S
C86         N124   1.350       .  A
C86         C188   1.481       .  S
N87          N94   1.319       .  A
N87         N117   1.320       .  A
N87        Co120   2.079       .  S
N88         N106   1.318       .  A
N88         N124   1.323       .  A
N88        Co411   2.082       .  S
N89         C118   1.350       .  A
N89          N99   1.323       .  A
H90         C115   1.081       .  S
N91         N112   1.323       .  A
N92          N97   1.324       .  A
N92        N1088   1.318   1_445  A
C93         N749   1.353       .  A
C93         C132   1.487       .  S
C93         C447   1.465   1_545  S
N94         C109   1.341       .  A
N94        Co116   2.072       .  S
C95         N123   1.337       .  A
C95          C98   1.459       .  S
C95         H129   1.081       .  S
N97         C745   1.351   1_455  A
C98         N119   1.349       .  A
C98         C247   1.476       .  S
N99         N105   1.318       .  A
N100        C126   1.343       .  A
N100        N102   1.318       .  A
N100       Co116   2.088       .  S
N101        C115   1.337       .  A
N101       N1057   1.319   1_445  A
N102        N130   1.322       .  A
N102       Co120   2.073       .  S
H103        C126   1.081       .  S
H104        C121   1.078       .  S
N106       Co772   2.075   1_455  S
N107        N119   1.322       .  A
N107        N123   1.318       .  A
N107       Co442   2.075   1_545  S
C108        N112   1.348       .  A
C108        C122   1.459       .  S
C108        C272   1.473       .  S
C109        C128   1.459       .  S
C109        H113   1.082       .  S
N110        C121   1.337       .  A
N110       N1070   1.318       .  A
N110       Co120   2.075       .  S
C114        N130   1.348       .  A
C114        C126   1.465       .  S
C114        C177   1.477       .  S
C115       C1056   1.460       .  S
Co116       N433   2.064       .  S
Co116      Cl453   2.456       .  S
N117        C128   1.349       .  A
C118        C163   1.474       .  S
Co120       N758   2.076       .  S
Co120      Cl453   2.432       .  S
C121        C419   1.462       .  S
N123       Co735   2.070       .  S
Cl127      Co735   2.440       .  S
Cl127      Co737   2.453       .  S
Cl127      Co442   2.451   1_545  S
Cl127      Co446   2.440   1_545  S
C128        C261   1.469       .  S
C131        H790   1.084       .  S
C131        C132   1.406       .  A
C131        C136   1.406       .  A
C132        C459   1.417   1_545  A
C133        C134   1.395       .  A
C133        C458   1.418       .  A
C133        N140   1.431       .  S
C134        H139   1.084       .  S
C134        C461   1.404       .  A
C135        C136   1.416       .  A
C135        C460   1.403   1_545  A
C136        N789   1.432       .  S
N137        C788   1.432   1_455  S
N137        H141   1.043       .  S
N137        H142   1.046   1_455  S
H138        C783   1.084       .  S
N140        H143   1.045       .  S
N140        H144   1.043       .  S
C145        H152   1.084       .  S
C145        C146   1.404       .  A
C145        C150   1.403       .  A
C146        C473   1.416       .  A
C147        C148   1.400       .  A
C147        C472   1.412       .  A
C147        N806   1.431       .  S
C148        H805   1.084       .  S
C148        C475   1.405   1_545  A
C149        C150   1.411       .  A
C149        C474   1.405       .  A
C150        N151   1.431       .  S
N151        H156   1.045       .  S
N151        H807   1.046       .  S
H153        C800   1.084       .  S
N154        C799   1.432       .  S
N154        H809   1.046       .  S
N154        H810   1.045       .  S
H155        N803   1.046       .  S
H157        N806   1.046       .  S
H158        N806   1.046       .  S
C159        H166   1.084       .  S
C159        C160   1.404       .  A
C159        C164   1.403       .  A
C160        C161   1.412       .  A
C161        C162   1.395       .  A
C161        N168   1.432       .  S
C162        H167   1.083       .  S
C162        C163   1.404       .  A
C163        C164   1.411       .  A
C164        N165   1.438       .  S
N165        H169   1.046       .  S
N165        H170   1.045       .  S
N168        H171   1.046       .  S
N168        H172   1.042       .  S
C173        H180   1.084       .  S
C173        C174   1.406       .  A
C173        C178   1.405       .  A
C174        C175   1.410       .  A
C175        C176   1.400       .  A
C175        N182   1.431       .  S
C176        H181   1.084       .  S
C176        C177   1.403       .  A
C177        C178   1.408       .  A
C178        N179   1.432       .  S
N179        H183   1.046       .  S
N179        H184   1.045       .  S
N182        H185   1.046       .  S
N182        H186   1.046       .  S
C187        H194   1.082       .  S
C187        C188   1.403       .  A
C187        C192   1.404       .  A
C188        C189   1.409       .  A
C189        C190   1.400       .  A
C189        N196   1.433       .  S
C190        H195   1.083       .  S
C190        C191   1.406       .  A
C191        C192   1.419       .  A
C192        N193   1.438       .  S
N193        H197   1.046       .  S
N193        H198   1.045       .  S
N196        H199   1.046       .  S
N196        H200   1.045       .  S
C201        H208   1.084       .  S
C201        C202   1.404       .  A
C201        C206   1.401       .  A
C202        C203   1.416       .  A
C203        C204   1.399       .  A
C203        N210   1.432       .  S
C204        H209   1.084       .  S
C204        C205   1.399       .  A
C205        C206   1.409       .  A
C206        N207   1.432       .  S
N207        H211   1.046       .  S
N207        H212   1.045       .  S
N210        H213   1.046       .  S
N210        H214   1.046       .  S
C215        H222   1.084       .  S
C215        C216   1.402       .  A
C215        C220   1.404       .  A
C216        C217   1.411       .  A
C217        C218   1.397       .  A
C217        N224   1.433       .  S
C218        H223   1.084       .  S
C218        C219   1.407       .  A
C219        C220   1.415       .  A
C220        N221   1.438       .  S
N221        H225   1.046       .  S
N221        H226   1.045       .  S
N224        H227   1.046       .  S
N224        H228   1.044       .  S
C229        H236   1.082       .  S
C229        C230   1.406       .  A
C229        C234   1.403       .  A
C230        C231   1.407       .  A
C231        C232   1.398       .  A
C231        N238   1.432       .  S
C232        H237   1.082       .  S
C232        C233   1.408       .  A
C233        C234   1.412       .  A
C234        N235   1.432       .  S
N235        H239   1.046       .  S
N235        H240   1.046       .  S
N238        H241   1.045       .  S
N238        H242   1.046       .  S
C243        H250   1.082       .  S
C243        C244   1.408       .  A
C243        C248   1.393       .  A
C244        C245   1.419       .  A
C245        C246   1.397       .  A
C245        N252   1.433       .  S
C246        H251   1.083       .  S
C246        C247   1.403       .  A
C247        C248   1.412       .  A
C248        N249   1.432       .  S
N249        H253   1.045       .  S
N249        H254   1.045       .  S
N252        H255   1.045       .  S
N252        H256   1.045       .  S
C257        H264   1.083       .  S
C257        C258   1.405       .  A
C257        C262   1.397       .  A
C258        C259   1.411       .  A
C259        C260   1.404       .  A
C259        N266   1.432       .  S
C260        H265   1.084       .  S
C260        C261   1.403       .  A
C261        C262   1.405       .  A
C262        N263   1.433       .  S
N263        H267   1.046       .  S
N263        H268   1.045       .  S
N266        H269   1.046       .  S
N266        H270   1.046       .  S
C271        H278   1.084       .  S
C271        C272   1.399       .  A
C271        C276   1.395       .  A
C272        C273   1.411       .  A
C273        C274   1.403       .  A
C273        N280   1.432       .  S
C274        H279   1.084       .  S
C274        C275   1.404       .  A
C275        C276   1.413       .  A
C276        N277   1.433       .  S
N277        H281   1.046       .  S
N277        H282   1.046       .  S
N280        H283   1.045       .  S
N280        H284   1.046       .  S
C285        H292   1.082       .  S
C285        C286   1.402       .  A
C285        C290   1.401       .  A
C286        C287   1.412       .  A
C287        C288   1.401       .  A
C287        N294   1.432       .  S
C288        H293   1.083       .  S
C288        C289   1.406       .  A
C289        C290   1.415       .  A
C290        N291   1.432       .  S
N291        H295   1.046   1_556  S
N291        H296   1.046       .  S
N294        H297   1.046       .  S
N294        H298   1.045       .  S
C299        H306   1.084       .  S
C299        C300   1.402       .  A
C299        C304   1.404       .  A
C300        C301   1.412       .  A
C301        C302   1.398       .  A
C301        N308   1.432   1_556  S
C302        H307   1.084       .  S
C302        C303   1.405       .  A
C303        C304   1.415       .  A
C304        N305   1.438       .  S
N305        H309   1.046       .  S
N305        H310   1.045       .  S
N308        H311   1.046       .  S
N308        H312   1.043   1_554  S
C313        H320   1.084       .  S
C313        C314   1.404       .  A
C313        C318   1.401       .  A
C314        C315   1.407       .  A
C315        C316   1.401       .  A
C315        N322   1.432       .  S
C316        H321   1.083       .  S
C316        C317   1.404       .  A
C317        C318   1.409       .  A
C318        N319   1.433       .  S
N319        H323   1.046       .  S
N319        H324   1.046       .  S
N322        H325   1.046   1_556  S
N322        H326   1.046       .  S
C327        N328   1.357       .  A
C327        N332   1.353       .  A
C327        C615   1.481       .  S
N328        C329   1.359       .  A
C329        N330   1.360       .  A
C329        C626   1.491       .  S
N330        C331   1.359       .  A
C331        N332   1.354       .  A
C331        C640   1.476       .  S
C333        N334   1.357       .  A
C333        N338   1.350       .  A
C333        C570   1.470       .  S
N334        C335   1.357       .  A
C335        N336   1.360       .  A
C335        C601   1.476       .  S
N336        C337   1.358       .  A
C337        N338   1.351       .  A
C337        C584   1.470       .  S
C339        N340   1.354       .  A
C339        N344   1.362       .  A
C339        C559   1.485       .  S
N340        C341   1.352       .  A
C341        N342   1.352       .  A
C341        C545   1.469       .  S
N342        C343   1.354       .  A
C343        N344   1.360       .  A
C343        C528   1.470       .  S
C345        N346   1.357       .  A
C345        N350   1.355       .  A
C345        C517   1.485       .  S
N346        C347   1.359       .  A
C347        N348   1.360       .  A
C347        C486   1.483       .  S
N348        C349   1.359       .  A
C349        N350   1.355       .  A
C349        C500   1.477       .  S
C351        N369   1.346       .  A
C351        C388   1.462       .  S
C351        C643   1.467       .  S
N352        N369   1.319       .  A
N352        N374   1.319       .  A
N352       Co389   2.070       .  S
C353        N378   1.338       .  A
C353        C391   1.460       .  S
C353        H398   1.081       .  S
H354        C395   1.080       .  S
C355        N379   1.339       .  A
C355        C359   1.461       .  S
C355        H384   1.082       .  S
Co356       N374   2.078       .  S
Co356       N364   2.084   1_456  S
Co356       N396   2.079       .  S
Co356      N1024   2.078   1_455  S
Co356     Cl1052   2.453   1_455  S
N357        C395   1.339   1_556  A
N357        N690   1.316   1_565  A
N357       Co358   2.076       .  S
Co358       N361   2.084       .  S
Co358       N365   2.069       .  S
C359        N397   1.351       .  A
C359        C629   1.477       .  S
N360        N367   1.318       .  A
N360        N390   1.321       .  A
N360      Co1045   2.074   1_455  S
N361        N379   1.320       .  A
N361        N397   1.324       .  A
N362        C391   1.348       .  A
N362        N372   1.322       .  A
H363        C388   1.082   1_554  S
N364        N683   1.317       .  A
N364        N385   1.322   1_655  A
N365        N383   1.318       .  A
N365        N370   1.320       .  A
C366        N370   1.346       .  A
C366        C394   1.456       .  S
C366        C542   1.462       .  S
N367        C382   1.339       .  A
C368        N396   1.340       .  A
C368        C371   1.462       .  S
C368        H402   1.081       .  S
C371        N392   1.348       .  A
C371        C531   1.479       .  S
N372        N378   1.319       .  A
N372      Co1008   2.075       .  S
N373        C399   1.337       .  A
N373        N701   1.317   1_455  A
N373       Co389   2.074       .  S
N374        C388   1.340       .  A
N375        N699   1.319   1_565  A
N375        N403   1.323       .  A
N375       Co393   2.090       .  S
H376        C399   1.078       .  S
H377        C394   1.082       .  S
N379       Co393   2.086       .  S
N380        N392   1.321       .  A
N380        N396   1.318       .  A
N380       Co389   2.072       .  S
C381        N711   1.351   1_565  A
C381        C395   1.467       .  S
C381        C475   1.484       .  S
C382        C401   1.464       .  S
C382        H386   1.081   1_565  S
N383        C394   1.337       .  A
N383       Co393   2.065       .  S
N385        C707   1.353   1_455  A
C387       C1051   1.467       .  S
C387        C461   1.486       .  S
Co389     Cl1052   2.436   1_455  S
N390        C401   1.348       .  A
C391        C612   1.474       .  S
Co393      N1012   2.068       .  S
C399       C1039   1.464   1_455  S
Cl400     Co1008   2.441       .  S
Cl400     Co1041   2.446       .  S
C401        C556   1.479       .  S
C404        N422   1.352   1_545  A
C404        C767   1.465       .  S
C404        C472   1.484       .  S
N405        N422   1.323       .  A
N405        N753   1.317   1_565  A
N405       Co442   2.083       .  S
C406        N431   1.340       .  A
C406        C444   1.461       .  S
C406        H451   1.081       .  S
H407        C448   1.081       .  S
C408        N432   1.337       .  A
C408        C412   1.460       .  S
C408        H437   1.081   1_455  S
Co409       N427   2.086       .  S
Co409       N417   2.075       .  S
Co409      N1101   2.072   1_455  S
Co409       N425   2.082       .  S
Co409     Cl1105   2.446   1_455  S
N410        C448   1.338       .  A
N410        N417   1.318       .  A
N410       Co411   2.076       .  S
Co411       N431   2.081       .  S
Co411       N418   2.085       .  S
Co411     Cl1105   2.442   1_455  S
C412        N450   1.350       .  A
C412        C514   1.477       .  S
N413        N420   1.318       .  A
N413        N443   1.321       .  A
N413       Co446   2.079       .  S
N414        N432   1.318       .  A
N414        N450   1.323       .  A
N415        C444   1.349       .  A
N415        N425   1.322       .  A
H416        C441   1.079       .  S
N417        N438   1.323       .  A
N418        N762   1.317   1_455  A
N418        N423   1.322       .  A
C419       N1075   1.353       .  A
C419        C458   1.483       .  S
N420        C435   1.339       .  A
N420       Co442   2.067       .  S
C421        N449   1.336       .  A
C421        C424   1.459       .  S
C421        H455   1.081       .  S
N423       C1071   1.353   1_455  A
C424        N445   1.346       .  A
C424        C573   1.469       .  S
N425        N431   1.320       .  A
N426        C452   1.337       .  A
N426        N428   1.320       .  A
N426       Co442   2.082       .  S
N427        C441   1.340       .  A
N427        N731   1.317   1_455  A
N428        N456   1.324       .  A
N428       Co446   2.082       .  S
H429        C452   1.080       .  S
H430        C447   1.080       .  S
N432      Co1098   2.073   1_455  S
N433        N445   1.319       .  A
N433        N449   1.318       .  A
C434        N438   1.349       .  A
C434        C448   1.460       .  S
C434        C598   1.477       .  S
C435        C454   1.456       .  S
C435        H439   1.082       .  S
N436        C447   1.340       .  A
N436        N744   1.318   1_565  A
N436       Co446   2.085       .  S
C440        N456   1.351       .  A
C440        C452   1.464       .  S
C440        C503   1.481       .  S
C441        C730   1.471       .  S
N443        C454   1.348       .  A
C444        C489   1.475       .  S
Co446      N1084   2.078       .  S
N449      Co1061   2.069       .  S
Cl453     Co1061   2.435       .  S
Cl453     Co1063   2.454       .  S
C454        C587   1.464       .  S
C457       H1116   1.084       .  S
C457        C458   1.404       .  A
C457        C462   1.400       .  A
C459        C460   1.398       .  A
C459        N466   1.432       .  S
C460        H465   1.084       .  S
C461        C462   1.417       .  A
C462       N1115   1.431       .  S
N463       C1114   1.431       .  S
N463        H467   1.045       .  S
N463        H468   1.043       .  S
H464       C1109   1.084       .  S
N466        H469   1.045       .  S
N466        H470   1.043       .  S
C471        H478   1.084       .  S
C471        C472   1.405   1_565  A
C471        C476   1.403       .  A
C473        C474   1.405       .  A
C473       N1132   1.437       .  S
C474       H1131   1.083       .  S
C475        C476   1.410       .  A
C476        N477   1.431       .  S
N477       H1133   1.046       .  S
N477        H482   1.045       .  S
H479       C1126   1.084       .  S
N480       C1125   1.430       .  S
N480       H1135   1.046       .  S
N480       H1136   1.045       .  S
H481       N1129   1.045       .  S
H483       N1132   1.046       .  S
H484       N1132   1.046       .  S
C485        H492   1.084       .  S
C485        C486   1.406       .  A
C485        C490   1.400       .  A
C486        C487   1.417       .  A
C487        C488   1.400       .  A
C487        N494   1.432       .  S
C488        H493   1.083       .  S
C488        C489   1.403       .  A
C489        C490   1.407       .  A
C490        N491   1.433       .  S
N491        H495   1.046       .  S
N491        H496   1.045       .  S
N494        H497   1.045       .  S
N494        H498   1.043       .  S
C499        H506   1.084       .  S
C499        C500   1.403       .  A
C499        C504   1.398       .  A
C500        C501   1.408       .  A
C501        C502   1.405       .  A
C501        N508   1.432       .  S
C502        H507   1.084       .  S
C502        C503   1.407       .  A
C503        C504   1.410       .  A
C504        N505   1.431       .  S
N505        H509   1.046       .  S
N505        H510   1.046       .  S
N508        H511   1.046       .  S
N508        H512   1.045       .  S
C513        H520   1.082       .  S
C513        C514   1.404       .  A
C513        C518   1.404       .  A
C514        C515   1.407       .  A
C515        C516   1.400       .  A
C515        N522   1.433       .  S
C516        H521   1.083       .  S
C516        C517   1.408       .  A
C517        C518   1.415       .  A
C518        N519   1.438       .  S
N519        H523   1.046       .  S
N519        H524   1.046       .  S
N522        H525   1.046       .  S
N522        H526   1.046       .  S
C527        H534   1.084       .  S
C527        C528   1.400       .  A
C527        C532   1.398       .  A
C528        C529   1.410       .  A
C529        C530   1.406       .  A
C529        N536   1.438       .  S
C530        H535   1.083       .  S
C530        C531   1.405       .  A
C531        C532   1.412       .  A
C532        N533   1.433       .  S
N533        H537   1.046       .  S
N533        H538   1.045       .  S
N536        H539   1.046       .  S
N536        H540   1.046       .  S
C541        H548   1.084       .  S
C541        C542   1.402       .  A
C541        C546   1.398       .  A
C542        C543   1.410       .  A
C543        C544   1.393       .  A
C543        N550   1.433       .  S
C544        H549   1.084       .  S
C544        C545   1.404       .  A
C545        C546   1.408       .  A
C546        N547   1.433       .  S
N547        H551   1.046       .  S
N547        H552   1.045       .  S
N550        H553   1.046       .  S
N550        H554   1.044       .  S
C555        H562   1.082       .  S
C555        C556   1.401       .  A
C555        C560   1.399       .  A
C556        C557   1.412       .  A
C557        C558   1.401       .  A
C557        N564   1.432       .  S
C558        H563   1.084       .  S
C558        C559   1.404       .  A
C559        C560   1.417       .  A
C560        N561   1.433       .  S
N561        H565   1.046       .  S
N561        H566   1.046       .  S
N564        H567   1.045       .  S
N564        H568   1.045       .  S
C569        H576   1.084       .  S
C569        C570   1.401       .  A
C569        C574   1.394       .  A
C570        C571   1.417       .  A
C571        C572   1.390       .  A
C571        N578   1.433       .  S
C572        H577   1.082       .  S
C572        C573   1.400       .  A
C573        C574   1.415       .  A
C574        N575   1.432       .  S
N575        H579   1.045       .  S
N575        H580   1.046       .  S
N578        H581   1.046       .  S
N578        H582   1.044       .  S
C583        H590   1.082       .  S
C583        C584   1.405       .  A
C583        C588   1.395       .  A
C584        C585   1.407       .  A
C585        C586   1.401       .  A
C585        N592   1.432       .  S
C586        H591   1.083       .  S
C586        C587   1.403       .  A
C587        C588   1.404       .  A
C588        N589   1.434       .  S
N589        H593   1.046       .  S
N589        H594   1.045       .  S
N592        H595   1.045       .  S
N592        H596   1.046       .  S
C597        H604   1.083       .  S
C597        C598   1.403       .  A
C597        C602   1.401       .  A
C598        C599   1.411       .  A
C599        C600   1.401       .  A
C599        N606   1.432       .  S
C600        H605   1.084       .  S
C600        C601   1.402       .  A
C601        C602   1.411       .  A
C602        N603   1.433       .  S
N603        H607   1.046       .  S
N603        H608   1.046       .  S
N606        H609   1.046       .  S
N606        H610   1.046       .  S
C611        H618   1.083       .  S
C611        C612   1.402       .  A
C611        C616   1.400       .  A
C612        C613   1.409       .  A
C613        C614   1.399       .  A
C613        N620   1.433       .  S
C614        H619   1.084       .  S
C614        C615   1.405       .  A
C615        C616   1.413       .  A
C616        N617   1.433       .  S
N617        H621   1.046   1_556  S
N617        H622   1.046       .  S
N620        H623   1.046       .  S
N620        H624   1.046       .  S
C625        H632   1.083       .  S
C625        C626   1.409       .  A
C625        C630   1.403       .  A
C626        C627   1.420       .  A
C627        C628   1.399       .  A
C627        N634   1.431   1_556  S
C628        H633   1.084       .  S
C628        C629   1.402       .  A
C629        C630   1.408       .  A
C630        N631   1.438       .  S
N631        H635   1.046       .  S
N631        H636   1.045       .  S
N634        H637   1.045       .  S
N634        H638   1.044   1_554  S
C639        H646   1.084       .  S
C639        C640   1.406       .  A
C639        C644   1.398       .  A
C640        C641   1.409   1_556  A
C641        C642   1.401   1_554  A
C641        N648   1.431       .  S
C642        H647   1.083   1_556  S
C642        C643   1.401       .  A
C643        C644   1.406       .  A
C644        N645   1.434       .  S
N645        H649   1.045       .  S
N645        H650   1.046       .  S
N648        H651   1.045       .  S
N648        H652   1.046       .  S
C653        N654   1.356       .  A
C653        N658   1.353       .  A
C653        C941   1.483       .  S
N654        C655   1.358       .  A
C655        N656   1.358       .  A
C655        C952   1.480       .  S
N656        C657   1.359       .  A
C657        N658   1.354       .  A
C657        C966   1.475       .  S
C659        N660   1.360       .  A
C659        N664   1.354       .  A
C659        C896   1.485       .  S
N660        C661   1.356       .  A
C661        N662   1.354       .  A
C661        C927   1.467       .  S
N662        C663   1.353       .  A
C663        N664   1.352       .  A
C663        C910   1.470       .  S
C665        N666   1.352       .  A
C665        N670   1.358       .  A
C665        C885   1.469       .  S
N666        C667   1.351       .  A
C667        N668   1.355       .  A
C667        C871   1.473       .  S
N668        C669   1.357       .  A
C669        N670   1.356       .  A
C669        C854   1.469       .  S
C671        N672   1.352       .  A
C671        N676   1.356       .  A
C671        C843   1.488       .  S
N672        C673   1.354       .  A
C673        N674   1.358       .  A
C673        C812   1.480       .  S
N674        C675   1.360       .  A
C675        N676   1.359       .  A
C675        C826   1.479       .  S
C677        N695   1.351       .  A
C677        C714   1.455       .  S
C677        C969   1.470       .  S
N678        N695   1.324       .  A
N678        N700   1.318       .  A
N678       Co715   2.088       .  S
C679        N704   1.337       .  A
C679        C717   1.461       .  S
C679        H724   1.081   1_545  S
H680        C721   1.079       .  S
C681        N705   1.336       .  A
C681        C685   1.463       .  S
C681        H710   1.080       .  S
Co682       N700   2.063       .  S
Co682       N690   2.074       .  S
Co682       N722   2.070       .  S
N683        C721   1.342       .  A
N683       Co684   2.082   1_554  S
Co684       N687   2.081       .  S
Co684      N1030   2.078       .  S
Co684       N691   2.078       .  S
Co684     Cl1052   2.441       .  S
C685        N723   1.350       .  A
C685        C955   1.480       .  S
N686        N693   1.317       .  A
N686        N716   1.320       .  A
N687        N705   1.320       .  A
N687        N723   1.324       .  A
N688        C717   1.349       .  A
N688        N698   1.322       .  A
H689        C714   1.081   1_554  S
N690        N711   1.321   1_556  A
N691        N709   1.319       .  A
N691        N696   1.321       .  A
C692        N696   1.348       .  A
C692        C720   1.455       .  S
C692        C868   1.460       .  S
N693        C708   1.335       .  A
N693      Co1041   2.061       .  S
C694        N722   1.336       .  A
C694        C697   1.457       .  S
C694        H728   1.081       .  S
C697        N718   1.351       .  A
C697        C857   1.476       .  S
N698        N704   1.317       .  A
N699        C725   1.343       .  A
N699       Co715   2.090       .  S
N700        C714   1.336       .  A
N701        N729   1.324       .  A
N701       Co719   2.085       .  S
H702        C725   1.080       .  S
H703        C720   1.082       .  S
N704      Co1010   2.072   1_545  S
N705       Co719   2.080       .  S
N706        N718   1.323       .  A
N706        N722   1.318       .  A
N706       Co715   2.080       .  S
C707        C721   1.469       .  S
C707        C801   1.490       .  S
C708        C727   1.457       .  S
C708        H712   1.081       .  S
N709        C720   1.337       .  A
N709       Co719   2.065       .  S
C713       N1055   1.351   1_545  A
C713        C787   1.476       .  S
Co715      N1019   2.070   1_545  S
N716        C727   1.346       .  A
C717        C938   1.476       .  S
Co719     Cl1052   2.452       .  S
Cl726     Co1010   2.445   1_545  S
Cl726     Co1045   2.444   1_545  S
C727        C882   1.465       .  S
N729       C1039   1.353       .  A
C730        N748   1.351   1_455  A
C730        C798   1.489       .  S
N731        N748   1.322       .  A
N731       Co768   2.075       .  S
C732        N757   1.338       .  A
C732        C770   1.459       .  S
C732        H777   1.081       .  S
H733        C774   1.081       .  S
C734        N758   1.338       .  A
C734        C738   1.465       .  S
C734        H763   1.081       .  S
Co735       N753   2.078       .  S
Co735       N743   2.067       .  S
Co735       N751   2.080       .  S
N736        C774   1.341       .  A
N736        N743   1.318       .  A
N736       Co737   2.083       .  S
Co737      N1066   2.076   1_545  S
Co737       N757   2.075       .  S
Co737       N744   2.092       .  S
C738        N776   1.348       .  A
C738        C840   1.481       .  S
N739        N746   1.317       .  A
N739        N769   1.324       .  A
N739       Co772   2.078       .  S
N740        N758   1.317       .  A
N740        N776   1.322       .  A
N740      Co1063   2.073       .  S
N741        C770   1.349       .  A
N741        N751   1.321       .  A
H742        C767   1.080       .  S
N743        N764   1.320       .  A
N744        N749   1.326       .  A
C745       C1099   1.461   1_545  S
C745        C784   1.475       .  S
N746        C761   1.334       .  A
N746       Co768   2.059       .  S
C747        N775   1.334       .  A
C747        C750   1.462       .  S
C747        H781   1.080       .  S
C750        N771   1.349       .  A
C750        C899   1.479       .  S
N751        N757   1.320       .  A
N752        C778   1.335       .  A
N752        N754   1.319       .  A
N752       Co768   2.073       .  S
N753        C767   1.339       .  A
N754        N782   1.324       .  A
N754       Co772   2.082       .  S
H755        C778   1.081       .  S
H756        C773   1.078       .  S
N759        N771   1.322       .  A
N759        N775   1.317       .  A
N759      Co1094   2.072   1_545  S
C760        N764   1.346       .  A
C760        C774   1.463       .  S
C760        C924   1.477       .  S
C761        C780   1.451       .  S
C761        H765   1.082       .  S
N762        C773   1.340       .  A
N762       Co772   2.078       .  S
C766        N782   1.351       .  A
C766        C778   1.460       .  S
C766        C829   1.476       .  S
Co768      N1085   2.073       .  S
Co768     Cl1105   2.439       .  S
N769        C780   1.349       .  A
C770        C815   1.471       .  S
Co772     Cl1105   2.451       .  S
C773       C1071   1.466       .  S
Cl779     Co1094   2.456   1_545  S
Cl779     Co1098   2.434   1_545  S
C780        C913   1.461       .  S
C783        C784   1.404       .  A
C783        C788   1.403       .  A
C784       C1111   1.415   1_545  A
C785       C1110   1.417       .  A
C785        C786   1.402       .  A
C785        N792   1.431       .  S
C786        H791   1.084       .  S
C786       C1113   1.404       .  A
C787       C1112   1.401   1_545  A
C787        C788   1.414       .  A
N789        H793   1.043       .  S
N789        H794   1.046       .  S
N792        H795   1.042       .  S
N792        H796   1.046       .  S
C797        H804   1.084       .  S
C797        C798   1.407   1_655  A
C797        C802   1.405       .  A
C798       C1125   1.410       .  A
C799       C1124   1.412       .  A
C799        C800   1.400       .  A
C800       C1127   1.403   1_545  A
C801       C1126   1.405   1_655  A
C801        C802   1.413       .  A
C802        N803   1.430       .  S
N803        H808   1.046       .  S
C811        H818   1.083       .  S
C811        C812   1.407       .  A
C811        C816   1.399       .  A
C812        C813   1.415       .  A
C813        C814   1.398       .  A
C813        N820   1.431       .  S
C814        H819   1.083       .  S
C814        C815   1.403       .  A
C815        C816   1.407       .  A
C816        N817   1.439       .  S
N817        H821   1.045       .  S
N817        H822   1.046       .  S
N820        H823   1.045       .  S
N820        H824   1.043       .  S
C825        H832   1.084       .  S
C825        C826   1.404       .  A
C825        C830   1.398       .  A
C826        C827   1.410       .  A
C827        C828   1.403       .  A
C827        N834   1.431       .  S
C828        H833   1.084       .  S
C828        C829   1.404       .  A
C829        C830   1.408       .  A
C830        N831   1.431       .  S
N831        H835   1.046       .  S
N831        H836   1.046       .  S
N834        H837   1.045       .  S
N834        H838   1.046       .  S
C839        H846   1.081       .  S
C839        C840   1.401       .  A
C839        C844   1.402       .  A
C840        C841   1.411       .  A
C841        C842   1.401       .  A
C841        N848   1.433       .  S
C842        H847   1.084       .  S
C842        C843   1.406       .  A
C843        C844   1.420       .  A
C844        N845   1.438       .  S
N845        H849   1.046       .  S
N845        H850   1.045       .  S
N848        H851   1.046       .  S
N848        H852   1.046       .  S
C853        H860   1.084       .  S
C853        C854   1.400       .  A
C853        C858   1.398       .  A
C854        C855   1.411       .  A
C855        C856   1.404       .  A
C855        N862   1.438       .  S
C856        H861   1.081       .  S
C856        C857   1.405       .  A
C857        C858   1.409       .  A
C858        N859   1.432       .  S
N859        H863   1.046       .  S
N859        H864   1.046       .  S
N862        H865   1.045       .  S
N862        H866   1.046       .  S
C867        H874   1.084       .  S
C867        C868   1.401       .  A
C867        C872   1.399       .  A
C868        C869   1.407       .  A
C869        C870   1.392       .  A
C869        N876   1.433       .  S
C870        H875   1.083       .  S
C870        C871   1.407       .  A
C871        C872   1.409       .  A
C872        N873   1.432       .  S
N873        H877   1.046       .  S
N873        H878   1.045       .  S
N876        H879   1.046       .  S
N876        H880   1.044       .  S
C881        H888   1.083       .  S
C881        C882   1.399       .  A
C881        C886   1.394       .  A
C882        C883   1.409       .  A
C883        C884   1.397       .  A
C883        N890   1.433       .  S
C884        H889   1.084       .  S
C884        C885   1.402       .  A
C885        C886   1.413       .  A
C886        N887   1.433       .  S
N887        H891   1.045       .  S
N887        H892   1.046       .  S
N890        H893   1.045       .  S
N890        H894   1.046       .  S
C895        H902   1.084       .  S
C895        C896   1.406       .  A
C895        C900   1.396       .  A
C896        C897   1.421       .  A
C897        C898   1.390       .  A
C897        N904   1.432       .  S
C898        H903   1.081       .  S
C898        C899   1.401       .  A
C899        C900   1.416       .  A
C900        N901   1.432       .  S
N901        H905   1.044       .  S
N901        H906   1.045       .  S
N904        H907   1.044       .  S
N904        H908   1.045       .  S
C909        H916   1.082       .  S
C909        C910   1.406       .  A
C909        C914   1.399       .  A
C910        C911   1.408       .  A
C911        C912   1.397       .  A
C911        N918   1.433       .  S
C912        H917   1.084       .  S
C912        C913   1.401       .  A
C913        C914   1.403       .  A
C914        N915   1.433       .  S
N915        H919   1.046       .  S
N915        H920   1.045       .  S
N918        H921   1.045       .  S
N918        H922   1.046       .  S
C923        H930   1.083       .  S
C923        C924   1.404       .  A
C923        C928   1.402       .  A
C924        C925   1.413       .  A
C925        C926   1.398       .  A
C925        N932   1.433       .  S
C926        H931   1.084       .  S
C926        C927   1.399       .  A
C927        C928   1.407       .  A
C928        N929   1.432       .  S
N929        H933   1.045       .  S
N929        H934   1.046       .  S
N932        H935   1.046       .  S
N932        H936   1.046       .  S
C937        H944   1.082       .  S
C937        C938   1.402       .  A
C937        C942   1.399       .  A
C938        C939   1.409       .  A
C939        C940   1.400       .  A
C939        N946   1.433       .  S
C940        H945   1.083       .  S
C940        C941   1.406       .  A
C941        C942   1.414       .  A
C942        N943   1.433       .  S
N943        H947   1.046   1_556  S
N943        H948   1.046       .  S
N946        H949   1.046       .  S
N946        H950   1.046       .  S
C951        H958   1.083       .  S
C951        C952   1.405       .  A
C951        C956   1.401       .  A
C952        C953   1.415       .  A
C953        C954   1.399       .  A
C953        N960   1.432   1_556  S
C954        H959   1.084   1_556  S
C954        C955   1.405       .  A
C955        C956   1.411       .  A
C956        N957   1.437       .  S
N957        H961   1.046       .  S
N957        H962   1.046       .  S
N960        H963   1.046       .  S
N960        H964   1.042       .  S
C965        H972   1.084       .  S
C965        C966   1.407       .  A
C965        C970   1.398       .  A
C966        C967   1.408   1_556  A
C967        C968   1.400   1_554  A
C967        N974   1.431       .  S
C968        H973   1.083   1_556  S
C968        C969   1.404       .  A
C969        C970   1.405       .  A
C970        N971   1.433       .  S
N971        H975   1.046       .  S
N971        H976   1.046       .  S
N974        H977   1.045       .  S
N974        H978   1.046       .  S
C979        N980   1.362       .  A
C979        N984   1.355       .  A
C979       C1267   1.484       .  S
N980        C981   1.363       .  A
C981        N982   1.357       .  A
C981       C1278   1.482       .  S
N982        C983   1.354       .  A
C983        N984   1.352       .  A
C983       C1292   1.471       .  S
C985        N986   1.354       .  A
C985        N990   1.356       .  A
C985       C1222   1.485       .  S
N986        C987   1.352       .  A
C987        N988   1.357       .  A
C987       C1253   1.472       .  S
N988        C989   1.359       .  A
C989        N990   1.359       .  A
C989       C1236   1.479       .  S
C991        N992   1.354       .  A
C991        N996   1.354       .  A
C991       C1211   1.485       .  S
N992        C993   1.355       .  A
C993        N994   1.358       .  A
C993       C1197   1.482       .  S
N994        C995   1.358       .  A
C995        N996   1.354       .  A
C995       C1180   1.481       .  S
C997        N998   1.357       .  A
C997       N1002   1.360       .  A
C997       C1169   1.489       .  S
N998        C999   1.355       .  A
C999       N1000   1.356       .  A
C999       C1138   1.477       .  S
N1000      C1001   1.358       .  A
C1001      N1002   1.359       .  A
C1001      C1152   1.479       .  S
C1003      N1021   1.348       .  A
C1003      C1040   1.459       .  S
C1003      C1295   1.471       .  S
N1004      N1021   1.322       .  A
N1004      N1026   1.318       .  A
N1004     Co1041   2.077       .  S
C1005      N1030   1.337       .  A
C1005      C1043   1.462       .  S
C1005      H1050   1.081       .  S
H1006      C1047   1.081       .  S
C1007      N1031   1.339       .  A
C1007      C1011   1.462       .  S
C1007      H1036   1.081       .  S
Co1008     N1026   2.073       .  S
Co1008     N1016   2.085       .  S
Co1008     N1048   2.083       .  S
N1009      C1047   1.340       .  A
N1009     Co1010   2.082       .  S
Co1010     N1013   2.082       .  S
Co1010     N1017   2.075       .  S
C1011      N1049   1.352       .  A
C1011      C1281   1.482       .  S
N1012      N1019   1.317       .  A
N1012      N1042   1.321       .  A
N1013      N1031   1.318       .  A
N1013      N1049   1.324       .  A
N1014      C1043   1.350       .  A
N1014      N1024   1.324       .  A
H1015      C1040   1.081       .  S
N1016      N1037   1.323   1_556  A
N1017      N1035   1.318       .  A
N1017      N1022   1.321       .  A
C1018      N1022   1.347       .  A
C1018      C1046   1.459       .  S
C1018      C1194   1.467       .  S
N1019      C1034   1.336       .  A
C1020      N1048   1.338       .  A
C1020      C1023   1.460       .  S
C1020      H1054   1.082       .  S
C1023      N1044   1.345       .  A
C1023      C1183   1.467       .  S
N1024      N1030   1.318       .  A
N1025      C1051   1.339       .  A
N1025     Co1041   2.078       .  S
N1026      C1040   1.339       .  A
N1027      N1055   1.322       .  A
N1027     Co1045   2.082       .  S
H1028      C1051   1.077       .  S
H1029      C1046   1.081       .  S
N1031     Co1045   2.081       .  S
N1032      N1044   1.321       .  A
N1032      N1048   1.319       .  A
N1032     Co1041   2.062       .  S
C1033      C1047   1.464   1_454  S
C1033      C1127   1.481       .  S
C1034      C1053   1.462       .  S
C1034      H1038   1.081   1_565  S
N1035      C1046   1.339       .  A
N1035     Co1045   2.074       .  S
C1039      C1113   1.484       .  S
N1042      C1053   1.348       .  A
C1043      C1264   1.480       .  S
C1053      C1208   1.476       .  S
C1056      N1074   1.353   1_445  A
C1056      C1124   1.481       .  S
N1057      N1074   1.325       .  A
N1057     Co1094   2.089       .  S
C1058      N1083   1.343       .  A
C1058      C1096   1.464       .  S
C1058      H1103   1.082       .  S
H1059      C1100   1.081       .  S
C1060      N1084   1.338       .  A
C1060      C1064   1.461       .  S
C1060      H1089   1.081       .  S
Co1061     N1079   2.079       .  S
Co1061     N1069   2.073       .  S
Co1061     N1077   2.076       .  S
N1062      C1100   1.337       .  A
N1062      N1069   1.318       .  A
N1062     Co1063   2.076       .  S
Co1063     N1083   2.081       .  S
Co1063     N1070   2.085       .  S
C1064      N1102   1.349       .  A
C1064      C1166   1.478       .  S
N1065      N1072   1.319       .  A
N1065      N1095   1.321       .  A
N1065     Co1098   2.077       .  S
N1066      N1084   1.318       .  A
N1066      N1102   1.323       .  A
N1067      C1096   1.347       .  A
N1067      N1077   1.320       .  A
H1068      C1093   1.080       .  S
N1069      N1090   1.322       .  A
N1070      N1075   1.324       .  A
C1071      C1110   1.485       .  S
N1072      C1087   1.341       .  A
N1072     Co1094   2.078       .  S
C1073      N1101   1.338       .  A
C1073      C1076   1.459       .  S
C1073      H1107   1.081       .  S
C1076      N1097   1.349       .  A
C1076      C1225   1.476       .  S
N1077      N1083   1.318       .  A
N1078      C1104   1.341       .  A
N1078      N1080   1.318       .  A
N1078     Co1094   2.083       .  S
N1079      C1093   1.339       .  A
N1080      N1108   1.322       .  A
N1080     Co1098   2.071       .  S
H1081      C1104   1.081       .  S
H1082      C1099   1.080       .  S
N1085      N1097   1.322       .  A
N1085      N1101   1.317       .  A
C1086      N1090   1.349       .  A
C1086      C1100   1.462       .  S
C1086      C1250   1.478       .  S
C1087      C1106   1.460       .  S
C1087      H1091   1.082       .  S
N1088      C1099   1.337       .  A
N1088     Co1098   2.078       .  S
C1092      N1108   1.348       .  A
C1092      C1104   1.463       .  S
C1092      C1155   1.475       .  S
N1095      C1106   1.348       .  A
C1096      C1141   1.474       .  S
C1106      C1239   1.470       .  S
C1109      C1110   1.403   1_455  A
C1109      C1114   1.395       .  A
C1111      C1112   1.393       .  A
C1111      N1118   1.432       .  S
C1112      H1117   1.084       .  S
C1113      C1114   1.418   1_655  A
N1115      H1119   1.042       .  S
N1115      H1120   1.045       .  S
N1118      H1121   1.045       .  S
N1118      H1122   1.043       .  S
C1123      H1130   1.084       .  S
C1123      C1124   1.403   1_665  A
C1123      C1128   1.405       .  A
C1125      C1126   1.401       .  A
C1127      C1128   1.410   1_455  A
C1128      N1129   1.431       .  S
N1129      H1134   1.046       .  S
C1137      H1144   1.084       .  S
C1137      C1138   1.403       .  A
C1137      C1142   1.400       .  A
C1138      C1139   1.415       .  A
C1139      C1140   1.400       .  A
C1139      N1146   1.431       .  S
C1140      H1145   1.083       .  S
C1140      C1141   1.402       .  A
C1141      C1142   1.409       .  A
C1142      N1143   1.433       .  S
N1143      H1147   1.046       .  S
N1143      H1148   1.046       .  S
N1146      H1149   1.046       .  S
N1146      H1150   1.042       .  S
C1151      H1158   1.084       .  S
C1151      C1152   1.405       .  A
C1151      C1156   1.403       .  A
C1152      C1153   1.410       .  A
C1153      C1154   1.399       .  A
C1153      N1160   1.431       .  S
C1154      H1159   1.084       .  S
C1154      C1155   1.402       .  A
C1155      C1156   1.408       .  A
C1156      N1157   1.431       .  S
N1157      H1161   1.046       .  S
N1157      H1162   1.045       .  S
N1160      H1163   1.045       .  S
N1160      H1164   1.046       .  S
C1165      H1172   1.083       .  S
C1165      C1166   1.401       .  A
C1165      C1170   1.400       .  A
C1166      C1167   1.410       .  A
C1167      C1168   1.403       .  A
C1167      N1174   1.433       .  S
C1168      H1173   1.083       .  S
C1168      C1169   1.408       .  A
C1169      C1170   1.416       .  A
C1170      N1171   1.433       .  S
N1171      H1175   1.046       .  S
N1171      H1176   1.046       .  S
N1174      H1177   1.045       .  S
N1174      H1178   1.046       .  S
C1179      H1186   1.084       .  S
C1179      C1180   1.406       .  A
C1179      C1184   1.401       .  A
C1180      C1181   1.416       .  A
C1181      C1182   1.397       .  A
C1181      N1188   1.432       .  S
C1182      H1187   1.084       .  S
C1182      C1183   1.396       .  A
C1183      C1184   1.409       .  A
C1184      N1185   1.433       .  S
N1185      H1189   1.046       .  S
N1185      H1190   1.045       .  S
N1188      H1191   1.046       .  S
N1188      H1192   1.046       .  S
C1193      H1200   1.084       .  S
C1193      C1194   1.401       .  A
C1193      C1198   1.404       .  A
C1194      C1195   1.409       .  A
C1195      C1196   1.394       .  A
C1195      N1202   1.434       .  S
C1196      H1201   1.083       .  S
C1196      C1197   1.408       .  A
C1197      C1198   1.415       .  A
C1198      N1199   1.438       .  S
N1199      H1203   1.046       .  S
N1199      H1204   1.045       .  S
N1202      H1205   1.046       .  S
N1202      H1206   1.044       .  S
C1207      H1214   1.081       .  S
C1207      C1208   1.402       .  A
C1207      C1212   1.401       .  A
C1208      C1209   1.409       .  A
C1209      C1210   1.397       .  A
C1209      N1216   1.433       .  S
C1210      H1215   1.083       .  S
C1210      C1211   1.407       .  A
C1211      C1212   1.417       .  A
C1212      N1213   1.438       .  S
N1213      H1217   1.045       .  S
N1213      H1218   1.046       .  S
N1216      H1219   1.046       .  S
N1216      H1220   1.046       .  S
C1221      H1228   1.083       .  S
C1221      C1222   1.408       .  A
C1221      C1226   1.392       .  A
C1222      C1223   1.418       .  A
C1223      C1224   1.398       .  A
C1223      N1230   1.432       .  S
C1224      H1229   1.083       .  S
C1224      C1225   1.404       .  A
C1225      C1226   1.411       .  A
C1226      N1227   1.432       .  S
N1227      H1231   1.045       .  S
N1227      H1232   1.045       .  S
N1230      H1233   1.044       .  S
N1230      H1234   1.045       .  S
C1235      H1242   1.084       .  S
C1235      C1236   1.405       .  A
C1235      C1240   1.399       .  A
C1236      C1237   1.411       .  A
C1237      C1238   1.403       .  A
C1237      N1244   1.432       .  S
C1238      H1243   1.084       .  S
C1238      C1239   1.402       .  A
C1239      C1240   1.406       .  A
C1240      N1241   1.433       .  S
N1241      H1245   1.045       .  S
N1241      H1246   1.046       .  S
N1244      H1247   1.045       .  S
N1244      H1248   1.046       .  S
C1249      H1256   1.083       .  S
C1249      C1250   1.402       .  A
C1249      C1254   1.397       .  A
C1250      C1251   1.414       .  A
C1251      C1252   1.402       .  A
C1251      N1258   1.432       .  S
C1252      H1257   1.084       .  S
C1252      C1253   1.400       .  A
C1253      C1254   1.411       .  A
C1254      N1255   1.433       .  S
N1255      H1259   1.046       .  S
N1255      H1260   1.046       .  S
N1258      H1261   1.046       .  S
N1258      H1262   1.045       .  S
C1263      H1270   1.082       .  S
C1263      C1264   1.401       .  A
C1263      C1268   1.398       .  A
C1264      C1265   1.411       .  A
C1265      C1266   1.405       .  A
C1265      N1272   1.432       .  S
C1266      H1271   1.084       .  S
C1266      C1267   1.405       .  A
C1267      C1268   1.415       .  A
C1268      N1269   1.433       .  S
N1269      H1273   1.046       .  S
N1269      H1274   1.046       .  S
N1272      H1275   1.046   1_556  S
N1272      H1276   1.046       .  S
C1277      H1284   1.084       .  S
C1277      C1278   1.404       .  A
C1277      C1282   1.407       .  A
C1278      C1279   1.416       .  A
C1279      C1280   1.397       .  A
C1279      N1286   1.432       .  S
C1280      H1285   1.084       .  S
C1280      C1281   1.402       .  A
C1281      C1282   1.413       .  A
C1282      N1283   1.436       .  S
N1283      H1287   1.046       .  S
N1283      H1288   1.045       .  S
N1286      H1289   1.046   1_556  S
N1286      H1290   1.042       .  S
C1291      H1298   1.084       .  S
C1291      C1292   1.403       .  A
C1291      C1296   1.399       .  A
C1292      C1293   1.407       .  A
C1293      C1294   1.401       .  A
C1293      N1300   1.431       .  S
C1294      H1299   1.083       .  S
C1294      C1295   1.403       .  A
C1295      C1296   1.408       .  A
C1296      N1297   1.433       .  S
N1297      H1301   1.045       .  S
N1297      H1302   1.046       .  S
N1300      H1303   1.045   1_556  S
N1300      H1304   1.046       .  S
