geometry optimzed in LAMMPS
_audit_creation_date              2020-11-30 
_audit_creation_method            'lammps2cif' 
_symmetry_space_group_name_H-M    'P1' 
_symmetry_Int_Tables_number       1 
_symmetry_cell_setting            triclinic 
loop_ 
_symmetry_equiv_pos_as_xyz 
  x,y,z 
_cell_length_a                    28.823577423194987 
_cell_length_b                    25.486685621698626 
_cell_length_c                    37.80192520819411 
_cell_angle_alpha                 91.43476207504794 
_cell_angle_beta                  90.54989538654593 
_cell_angle_gamma                 88.6573690564463 
loop_ 
_atom_site_label 
_atom_site_type_symbol 
_atom_site_fract_x 
_atom_site_fract_y 
_atom_site_fract_z 
_atom_site_charge 
O1          O  0.90941762  0.43466609  0.86134111    -0.75380
O2          O  0.93230092  0.37360629  0.81986323    -0.54290
C3          C  0.90630373  0.39000782  0.84563616     0.78350
O4          O  0.91200820  0.61346113  0.71349868    -0.59980
O5          O  0.94894126  0.67165803  0.75031601    -0.53010
C6          C  0.92300205  0.66051651  0.72368277     0.70360
O7          O  0.91409639  0.43287487  0.70780193    -0.74540
O8          O  0.94393324  0.37209878  0.74508359    -0.55100
C9          C  0.92140266  0.38499515  0.71708118     0.76370
O10         O  0.92935563  0.60426155  0.86451590    -0.59680
O11         O  0.92837376  0.66578166  0.82435119    -0.52800
C12         C  0.91008561  0.64446965  0.85103684     0.72960
Zr13       Zr  0.91907695  0.51954184  0.83671939     2.54710
O14         O  0.83890961  0.52479378  0.81612559    -0.80250
O15         O  0.87203323  0.52873678  0.88990970    -0.93660
Zr16       Zr  0.92749344  0.52191868  0.73171723     2.64680
O17         O  0.84304142  0.52245336  0.73094263    -0.98620
O18         O  0.93007189  0.52283837  0.66740539    -0.80680
O19         O  0.92222459  0.47006309  0.78297755    -0.84040
O20         O  0.92356649  0.57049716  0.78551733    -2.18750
O21         O  0.05247619  0.60541366  0.87165289    -0.67430
O22         O  0.04745308  0.66592878  0.83008434    -0.51990
C23         C  0.06759282  0.64636753  0.85730318     0.71340
O24         O  0.08450772  0.42785567  0.71798730    -0.60340
O25         O  0.03994169  0.36908712  0.74602862    -0.52310
C26         C  0.07083014  0.38069643  0.72346107     0.73150
O27         O  0.07058313  0.60748854  0.71520751    -0.71730
O28         O  0.03927531  0.66877564  0.75258079    -0.50410
C29         C  0.06134759  0.65566527  0.72439061     0.74530
O30         O  0.06540574  0.43079606  0.86584609    -0.67060
O31         O  0.05542970  0.37477563  0.81936022    -0.54260
C32         C  0.07734823  0.39043566  0.84736979     0.72910
Zr33       Zr  0.05566561  0.51837058  0.84465892     2.77540
O34         O  0.13985599  0.52178588  0.84134394    -0.97810
O35         O  0.07220807  0.51540902  0.90783022    -0.78630
Zr36       Zr  0.06396444  0.51857313  0.73870859     2.70070
O37         O  0.14791344  0.52494190  0.74424526    -0.79880
O38         O  0.06924714  0.51242820  0.67450776    -0.98960
Zr39       Zr  0.99198422  0.41860779  0.78714138     2.21500
Zr40       Zr  0.99185238  0.62095783  0.79195161     2.11130
O41         O  0.06185852  0.56844651  0.79287178    -2.47650
O42         O  0.06051446  0.46874417  0.79082431    -0.79670
O43         O  0.98677617  0.57040951  0.84399710    -0.71870
O44         O  0.99586923  0.46925236  0.73473706    -2.32820
O45         O  0.98775275  0.46707777  0.84176891    -2.29030
O46         O  0.99556782  0.57138458  0.73742168    -0.73630
H47         H  0.89712364  0.59381620  0.78373718     0.78370
H48         H  0.99774560  0.44730449  0.71360886     0.79460
H49         H  0.08896888  0.58978223  0.79440669     0.81680
H50         H  0.98703074  0.44503679  0.86209869     0.79290
H51         H  0.96154110  0.50913532  0.66146530     0.42330
H52         H  0.04986339  0.54181946  0.66544656     0.41300
H53         H  0.15366955  0.53473304  0.76937280     0.40970
H54         H  0.14714951  0.55881889  0.84693387     0.38910
H55         H  0.04120882  0.51525764  0.91891060     0.42040
H56         H  0.89211254  0.51504830  0.90914219     0.36820
H57         H  0.82653159  0.48959228  0.82025059     0.42940
H58         H  0.83373565  0.55616071  0.74262255     0.39360
H59         H  0.15126429  0.50239163  0.86219116     0.44280
H60         H  0.84720722  0.50272572  0.88700267     0.43000
H61         H  0.83457859  0.52715484  0.70576067     0.43130
H62         H  0.10156459  0.52149987  0.66913465     0.43490
C63         C  0.72784929  0.34254256  0.89356892     0.03040
C64         C  0.71336386  0.29307084  0.88265409    -0.13110
C65         C  0.66700656  0.28022376  0.88386140     0.00540
C66         C  0.63454101  0.31648844  0.89861892    -0.11630
C67         C  0.64875747  0.36631208  0.91189813     0.03030
C68         C  0.69600100  0.37919313  0.90878518    -0.11050
H69         H  0.73794407  0.26582446  0.86999448     0.08630
H70         H  0.59832921  0.30611185  0.89900448     0.06160
H71         H  0.70756970  0.41793717  0.91663205     0.06010
O72         O  0.56916596  0.10468986  0.82057422    -0.75380
O73         O  0.62307007  0.06375049  0.78508870    -0.54290
C74         C  0.61018660  0.09837221  0.80889113     0.78350
O75         O  0.41982967  0.89226138  0.81227492    -0.59980
O76         O  0.36152099  0.94288110  0.78898596    -0.53010
C77         C  0.37717450  0.90366877  0.80684661     0.70360
O78         O  0.56910189  0.89739662  0.81775651    -0.74540
O79         O  0.62523171  0.93835472  0.78749562    -0.55100
C80         C  0.61132261  0.90621416  0.81092942     0.76370
O81         O  0.42107496  0.10788893  0.82406314    -0.59680
O82         O  0.36246627  0.06764653  0.79387278    -0.52800
C83         C  0.37836694  0.10156052  0.81651472     0.72960
Zr84       Zr  0.49450023  0.07586548  0.80406355     2.54710
O85         O  0.49864043  0.06670439  0.86797514    -0.80250
O86         O  0.49187439  0.17152098  0.80762354    -0.93660
Zr87       Zr  0.49395645  0.92259141  0.79802491     2.64680
O88         O  0.49211104  0.91997786  0.86240317    -0.98620
O89         O  0.50010102  0.82722509  0.79383166    -0.80680
O90         O  0.54003829  0.99766795  0.80235623    -0.84040
O91         O  0.44899294  0.00066983  0.80520142    -2.18750
O92         O  0.40613228  0.09449828  0.67700781    -0.67430
O93         O  0.36029667  0.07110118  0.72168884    -0.51990
C94         C  0.36540792  0.08806963  0.69062524     0.71340
O95         O  0.56438499  0.90762278  0.66744620    -0.60340
O96         O  0.61988213  0.94548228  0.70290697    -0.52310
C97         C  0.60692864  0.91855636  0.67540808     0.73150
O98         O  0.40389307  0.90849125  0.67546670    -0.71730
O99         O  0.35660793  0.95830729  0.71158658    -0.50410
C100        C  0.36319270  0.92544897  0.68589782     0.74530
O101        O  0.57022049  0.10661240  0.68269282    -0.67060
O102        O  0.62218594  0.05163614  0.70957089    -0.54260
C103        C  0.61245162  0.09005957  0.68945264     0.72910
Zr104      Zr  0.48882145  0.08156770  0.69822873     2.77540
O105        O  0.49330165  0.08555311  0.63408790    -0.97810
O106        O  0.48092802  0.17656794  0.70512931    -0.78630
Zr107      Zr  0.48668415  0.92510552  0.69343767     2.70070
O108        O  0.48060947  0.92367625  0.62917359    -0.79880
O109        O  0.48889626  0.82976291  0.69590761    -0.98960
Zr110      Zr  0.58074791  0.99790011  0.74846928     2.21500
Zr111      Zr  0.40295087  0.00574071  0.75346766     2.11130
O112        O  0.44358259  0.00480348  0.69820699    -2.47650
O113        O  0.53283779  0.00149132  0.69612801    -0.79670
O114        O  0.44760876  0.08273287  0.75271359    -0.71870
O115        O  0.53593974  0.92032720  0.74458206    -2.32820
O116        O  0.53563900  0.07749610  0.75029088    -2.29030
O117        O  0.44523273  0.92467769  0.74746081    -0.73630
H118        H  0.43027529  0.00032450  0.82625447     0.78370
H119        H  0.55584767  0.88932750  0.74311773     0.79460
H120        H  0.42271804  0.00462633  0.67813414     0.81680
H121        H  0.55517223  0.10762571  0.75069230     0.79290
H122        H  0.49514717  0.81861960  0.76842572     0.42330
H123        H  0.45657748  0.82037234  0.70111748     0.41300
H124        H  0.48876147  0.95958454  0.62244707     0.40970
H125        H  0.46898686  0.06171483  0.62512178     0.38910
H126        H  0.45111356  0.18247419  0.71757167     0.42040
H127        H  0.51463514  0.18267370  0.79003996     0.36820
H128        H  0.51797709  0.03460311  0.87149705     0.42940
H129        H  0.46225291  0.93710429  0.86928846     0.39360
H130        H  0.48134816  0.12117402  0.62854653     0.44280
H131        H  0.50588356  0.18087700  0.83088858     0.43000
H132        H  0.48828091  0.88244818  0.86760585     0.43130
H133        H  0.49364758  0.81775121  0.67106707     0.43490
C134        C  0.25527600  0.68104211  0.90263762     0.03040
C135        C  0.27037698  0.73029802  0.89338655    -0.13110
C136        C  0.31733893  0.74026179  0.89140119     0.00540
C137        C  0.34996611  0.70308785  0.90367157    -0.11630
C138        C  0.33572400  0.65389978  0.91551517     0.03030
C139        C  0.28774697  0.64280599  0.91444148    -0.11050
H140        H  0.24548286  0.75862895  0.88284625     0.08630
H141        H  0.38650564  0.71175756  0.90218072     0.06160
H142        H  0.27596975  0.60428407  0.92112724     0.06010
C143        C  0.73005079  0.67255547  0.90901387     0.03040
C144        C  0.71589340  0.72113731  0.89630247    -0.13110
C145        C  0.66929346  0.73363647  0.89149587     0.00540
C146        C  0.63551194  0.69895856  0.90321136    -0.11630
C147        C  0.64893640  0.65063124  0.91883195     0.03030
C148        C  0.69686798  0.63755516  0.92105225    -0.11050
H149        H  0.74161232  0.74720479  0.88612088     0.08630
H150        H  0.59916239  0.70926067  0.89948521     0.06160
H151        H  0.70831307  0.59936491  0.93011322     0.06010
C152        C  0.25809813  0.34976439  0.90064870     0.03040
C153        C  0.27302880  0.29953218  0.89033662    -0.13110
C154        C  0.31983728  0.28630364  0.88964195     0.00540
C155        C  0.35253226  0.32270994  0.90181607    -0.11630
C156        C  0.33803276  0.37327772  0.91443896     0.03030
C157        C  0.29022096  0.38664199  0.91347925    -0.11050
H158        H  0.24823159  0.27203700  0.87926293     0.08630
H159        H  0.38903402  0.31174742  0.90079637     0.06160
H160        H  0.27827509  0.42601983  0.92075989     0.06010
C161        C  0.18787875  0.13517428  0.62279056     0.03040
C162        C  0.17277534  0.18131143  0.64023912    -0.13110
C163        C  0.12613539  0.19738020  0.63929776     0.00540
C164        C  0.09382677  0.16757927  0.61985226    -0.11630
C165        C  0.10840861  0.12205333  0.60093100     0.03030
C166        C  0.15576711  0.10610695  0.60231339    -0.11050
H167        H  0.19708859  0.20341308  0.65646172     0.08630
H168        H  0.05781289  0.18068396  0.61863263     0.06160
H169        H  0.16730139  0.07058664  0.58834174     0.06010
C170        C  0.18064500  0.88341209  0.62575911     0.03040
C171        C  0.16353321  0.83602922  0.63768151    -0.13110
C172        C  0.11719408  0.82286184  0.63259084     0.00540
C173        C  0.08817351  0.85489774  0.61197158    -0.11630
C174        C  0.10462910  0.90145595  0.59816560     0.03030
C175        C  0.15103502  0.91611317  0.60532858    -0.11050
H176        H  0.18566420  0.81107855  0.65384140     0.08630
H177        H  0.05256769  0.84378337  0.60700604     0.06160
H178        H  0.16363454  0.95265639  0.59550082     0.06010
C179        C  0.78419997  0.15267955  0.62399437     0.03040
C180        C  0.80229104  0.19888871  0.63863248    -0.13110
C181        C  0.84813237  0.21239860  0.63243088     0.00540
C182        C  0.87618188  0.17990150  0.61079080    -0.11630
C183        C  0.85954027  0.13273514  0.59673717     0.03030
C184        C  0.81285895  0.11975184  0.60240612    -0.11050
H185        H  0.78145645  0.22270887  0.65691997     0.08630
H186        H  0.91151959  0.19096175  0.60550801     0.06160
H187        H  0.79953274  0.08398295  0.59075961     0.06010
C188        C  0.78853510  0.88009886  0.62165131     0.03040
C189        C  0.81188332  0.84762348  0.64570386    -0.13110
C190        C  0.86006954  0.84001307  0.64479398     0.00540
C191        C  0.88675866  0.87081502  0.62296771    -0.11630
C192        C  0.86493974  0.90449092  0.59891218     0.03030
C193        C  0.81574855  0.90634606  0.59683055    -0.11050
H194        H  0.79241297  0.82679603  0.66504530     0.08630
H195        H  0.92422415  0.86588148  0.62305674     0.06160
H196        H  0.79898848  0.92872610  0.57618051     0.06010
O197        O  0.56857145  0.39650269  0.04663135    -0.75380
O198        O  0.62577674  0.44346138  0.02203218    -0.54290
C199        C  0.61149753  0.40498318  0.04071834     0.78350
O200        O  0.41582230  0.40038656  0.91998089    -0.59980
O201        O  0.35975588  0.45129041  0.94706144    -0.53010
C202        C  0.37317874  0.41129565  0.92772701     0.70360
O203        O  0.57068903  0.39512804  0.92066934    -0.74540
O204        O  0.62757894  0.44424529  0.94636221    -0.55100
C205        C  0.61367448  0.40465966  0.92726284     0.76370
O206        O  0.41739349  0.40746384  0.04870124    -0.59680
O207        O  0.36060002  0.45520982  0.02102201    -0.52800
C208        C  0.37462942  0.41770319  0.04116940     0.72960
Zr209      Zr  0.49396117  0.43988567  0.03685004     2.54710
O210        O  0.49119977  0.34754084  0.05145066    -0.80250
O211        O  0.49726174  0.46248035  0.09975702    -0.93660
Zr212      Zr  0.49351988  0.43380445  0.93145858     2.64680
O213        O  0.49636767  0.33854278  0.92363571    -0.98620
O214        O  0.49244014  0.44498570  0.86769019    -0.80680
O215        O  0.53819691  0.43408863  0.98439931    -0.84040
O216        O  0.44946675  0.43694614  0.98406100    -2.18750
O217        O  0.41628485  0.63166126  0.04685445    -0.67430
O218        O  0.36029020  0.58046866  0.02159888    -0.51990
C219        C  0.37349647  0.62062458  0.04044359     0.71340
O220        O  0.57021834  0.62470009  0.92409911    -0.60340
O221        O  0.62680156  0.57295681  0.94898297    -0.52310
C222        C  0.61314937  0.61349320  0.93134295     0.73150
O223        O  0.41428549  0.62324711  0.92018008    -0.71730
O224        O  0.35831316  0.57696650  0.94713147    -0.50410
C225        C  0.37148979  0.61498406  0.92801254     0.74530
O226        O  0.57165511  0.62620229  0.04574751    -0.67060
O227        O  0.62796557  0.57207120  0.02186258    -0.54260
C228        C  0.61443727  0.61331851  0.03991305     0.72910
Zr229      Zr  0.49393122  0.59273633  0.03555857     2.77540
O230        O  0.49873847  0.68777458  0.04171007    -0.97810
O231        O  0.49430618  0.58369095  0.09951269    -0.78630
Zr232      Zr  0.49321234  0.58665343  0.93041163     2.70070
O233        O  0.49146133  0.67895552  0.91525664    -0.79880
O234        O  0.49568095  0.56531923  0.86734420    -0.98960
Zr235      Zr  0.58569480  0.50919839  0.98422934     2.21500
Zr236      Zr  0.40219713  0.51540796  0.98368504     2.11130
O237        O  0.44908898  0.59176538  0.98295005    -2.47650
O238        O  0.53825089  0.58745723  0.98315964    -0.79670
O239        O  0.44676385  0.51752839  0.03752227    -0.71870
O240        O  0.54073175  0.50888035  0.93026093    -2.32820
O241        O  0.54119992  0.51481405  0.03760164    -2.29030
O242        O  0.44602013  0.51141185  0.92984868    -0.73630
H243        H  0.43097138  0.40591554  0.98431452     0.78370
H244        H  0.56070602  0.50742984  0.90986051     0.79460
H245        H  0.43050383  0.62371218  0.98297695     0.81680
H246        H  0.56124736  0.51530586  0.05823607     0.79290
H247        H  0.52514595  0.43937546  0.86046841     0.42330
H248        H  0.46287196  0.56780209  0.85943229     0.41300
H249        H  0.48798202  0.69805665  0.93825164     0.40970
H250        H  0.47604099  0.70177373  0.02431237     0.38910
H251        H  0.46142623  0.57827106  0.10551127     0.42040
H252        H  0.52766671  0.44813846  0.10783721     0.36820
H253        H  0.48839425  0.32887032  0.02826288     0.42940
H254        H  0.47423273  0.32540386  0.94103191     0.39360
H255        H  0.48523086  0.69661113  0.06515314     0.44280
H256        H  0.47418932  0.43968644  0.11051833     0.43000
H257        H  0.48179358  0.33137480  0.90023735     0.43130
H258        H  0.51041051  0.59591437  0.85683451     0.43490
C259        C  0.27703053  0.66586180  0.10149447     0.03040
C260        C  0.30328558  0.63386720  0.07819953    -0.13110
C261        C  0.33772505  0.65574405  0.05775608     0.00540
C262        C  0.34084857  0.71120960  0.05749416    -0.11630
C263        C  0.31641283  0.74414570  0.08247523     0.03030
C264        C  0.28702154  0.71900132  0.10574906    -0.11050
H265        H  0.29836020  0.59196347  0.07715323     0.08630
H266        H  0.36199142  0.72736121  0.03739524     0.06160
H267        H  0.27055934  0.74070790  0.12732052     0.06010
C268        C  0.72203979  0.35714038  0.08676741     0.03040
C269        C  0.69289334  0.38170374  0.06158528    -0.13110
C270        C  0.64576434  0.36879641  0.05863475     0.00540
C271        C  0.63062048  0.32377991  0.07647010    -0.11630
C272        C  0.66105682  0.29606667  0.09916159     0.03030
C273        C  0.70506643  0.31520878  0.10556977    -0.11050
H274        H  0.70595356  0.41303137  0.04599364     0.08630
H275        H  0.59516672  0.31107386  0.07356624     0.06160
H276        H  0.72623388  0.29704287  0.12593583     0.06010
C277        C  0.72652206  0.66332017  0.08150233     0.03040
C278        C  0.69537256  0.63076572  0.06291813    -0.13110
C279        C  0.64983511  0.64908656  0.05555732     0.00540
C280        C  0.63660983  0.70059779  0.06707560    -0.11630
C281        C  0.66831040  0.73283953  0.08527518     0.03030
C282        C  0.71349899  0.71473553  0.09071527    -0.11050
H283        H  0.70526292  0.59023746  0.05711883     0.08630
H284        H  0.60108035  0.71464030  0.06392298     0.06160
H285        H  0.73688483  0.73839386  0.10679106     0.06010
O286        O  0.41287291  0.91712811  0.14391955    -0.75380
O287        O  0.35292991  0.96438066  0.16815908    -0.54290
C288        C  0.37000874  0.93088168  0.14501656     0.78350
O289        O  0.55334222  0.92306314  0.30256384    -0.59980
O290        O  0.60982863  0.96233937  0.27102719    -0.53010
C291        C  0.59574778  0.93566966  0.29724946     0.70360
O292        O  0.39621208  0.92534079  0.29189733    -0.74540
O293        O  0.34790999  0.97070790  0.25471561    -0.55100
C294        C  0.35546262  0.94132793  0.28130741     0.76370
O295        O  0.56203711  0.89914920  0.15884324    -0.59680
O296        O  0.61847412  0.94358400  0.18874166    -0.52800
C297        C  0.60421099  0.90642281  0.16781664     0.72960
Zr298      Zr  0.48655214  0.93571329  0.16917583     2.54710
O299        O  0.47831223  0.84084169  0.16817154    -0.80250
O300        O  0.50268867  0.93530408  0.10609939    -0.93660
Zr301      Zr  0.47789646  0.93766900  0.27317238     2.64680
O302        O  0.47959454  0.84259284  0.26518596    -0.98620
O303        O  0.47136796  0.93132486  0.33705086    -0.80680
O304        O  0.43630485  0.93654188  0.21841421    -0.84040
O305        O  0.52761149  0.93339070  0.22339656    -2.18750
O306        O  0.56053395  0.12596774  0.16179801    -0.67430
O307        O  0.61645896  0.07463327  0.18742026    -0.51990
C308        C  0.60261219  0.11457914  0.16906667     0.71340
O309        O  0.40192081  0.10417342  0.29611305    -0.60340
O310        O  0.35652921  0.08724782  0.24871529    -0.52310
C311        C  0.36141130  0.09800522  0.28161094     0.73150
O312        O  0.56543185  0.11676503  0.29261170    -0.71730
O313        O  0.61576936  0.06121793  0.26380817    -0.50410
C314        C  0.60727330  0.09925138  0.28539112     0.74530
O315        O  0.41682162  0.13974548  0.18081795    -0.67060
O316        O  0.35799646  0.08348285  0.17655040    -0.54260
C317        C  0.37572984  0.12830635  0.17113309     0.72910
Zr318      Zr  0.48671331  0.08944458  0.16917547     2.77540
O319        O  0.48108434  0.17189270  0.13769599    -0.97810
O320        O  0.47735204  0.06694341  0.10651781    -0.78630
Zr321      Zr  0.48333134  0.09353417  0.27463226     2.70070
O322        O  0.47534929  0.18854113  0.27105646    -0.79880
O323        O  0.48540165  0.09656213  0.33905382    -0.98960
Zr324      Zr  0.39414645  0.01791297  0.21453175     2.21500
Zr325      Zr  0.57338944  0.01013213  0.22280292     2.11130
O326        O  0.52993386  0.09104683  0.22309353    -2.47650
O327        O  0.44071247  0.09389715  0.22029360    -0.79670
O328        O  0.53271277  0.01108514  0.16825759    -0.71870
O329        O  0.43652669  0.01749361  0.26988923    -2.32820
O330        O  0.44174480  0.01418082  0.16392407    -2.29030
O331        O  0.52551037  0.01295294  0.27437538    -0.73630
H332        H  0.54695549  0.90215639  0.22506333     0.78370
H333        H  0.41630215  0.01667494  0.28994859     0.79460
H334        H  0.54949148  0.12116949  0.22497846     0.81680
H335        H  0.42355167  0.01516205  0.14237199     0.79290
H336        H  0.47384867  0.96798649  0.34606095     0.42330
H337        H  0.51382902  0.07636866  0.34559159     0.41300
H338        H  0.44463178  0.19452047  0.25973064     0.40970
H339        H  0.49442953  0.19860383  0.15406624     0.38910
H340        H  0.50944056  0.06095042  0.09794691     0.42040
H341        H  0.53196861  0.95445664  0.10386009     0.36820
H342        H  0.46037647  0.83376339  0.18967165     0.42940
H343        H  0.51294099  0.83246710  0.26613275     0.39360
H344        H  0.50332602  0.16847580  0.11792208     0.44280
H345        H  0.51101311  0.89833193  0.09983336     0.43000
H346        H  0.46685111  0.82959583  0.28747819     0.43130
H347        H  0.49230285  0.13348856  0.34543008     0.43490
O348        O  0.08145446  0.60643767  0.17354599    -0.75380
O349        O  0.13186294  0.56603876  0.21075208    -0.54290
C350        C  0.12302704  0.59614163  0.18494584     0.78350
O351        O  0.91880200  0.62916186  0.29944393    -0.59980
O352        O  0.86332396  0.58937856  0.26532376    -0.53010
C353        C  0.87790788  0.62657764  0.28624246     0.70360
O354        O  0.06770999  0.61375639  0.31194486    -0.74540
O355        O  0.12600956  0.56742293  0.28407639    -0.55100
C356        C  0.11052456  0.60385028  0.30580708     0.76370
O357        O  0.92241902  0.61551943  0.16615551    -0.59680
O358        O  0.86822441  0.56526027  0.19108305    -0.52800
C359        C  0.88025454  0.60083415  0.16997630     0.72960
Zr360      Zr  0.99993182  0.58823194  0.18760686     2.54710
O361        O  0.00117114  0.68359512  0.19253310    -0.80250
O362        O  0.00330619  0.58533575  0.12323141    -0.93660
Zr363      Zr  0.99322439  0.58677637  0.29224908     2.64680
O364        O  0.00153620  0.68137834  0.30004655    -0.98620
O365        O  0.98228562  0.57539095  0.35534498    -0.80680
O366        O  0.04158784  0.58624340  0.24188810    -0.84040
O367        O  0.95259713  0.58975892  0.23781656    -2.18750
O368        O  0.92162034  0.41588898  0.15917139    -0.67430
O369        O  0.86565556  0.46266964  0.18939956    -0.51990
C370        C  0.87944732  0.43074287  0.16432444     0.71340
O371        O  0.06587487  0.39743909  0.30303716    -0.60340
O372        O  0.12548818  0.43658442  0.27522351    -0.52310
C373        C  0.10856045  0.40137449  0.29500879     0.73150
O374        O  0.91526348  0.41128119  0.30399929    -0.71730
O375        O  0.85966058  0.45521686  0.27214511    -0.50410
C376        C  0.87327467  0.42042769  0.29459218     0.74530
O377        O  0.07040518  0.41314894  0.16100677    -0.67060
O378        O  0.12534956  0.45791288  0.19270803    -0.54260
C379        C  0.11190766  0.42807613  0.16637246     0.72910
Zr380      Zr  0.99606719  0.43280108  0.18626295     2.77540
O381        O  0.99848027  0.33878077  0.19634950    -0.97810
O382        O  0.99622299  0.41936767  0.12229353    -0.78630
Zr383      Zr  0.99175725  0.43583587  0.28995884     2.70070
O384        O  0.98610339  0.34109533  0.29459232    -0.79880
O385        O  0.99447373  0.44595085  0.35414091    -0.98960
Zr386      Zr  0.08619730  0.50624196  0.24226976     2.21500
Zr387      Zr  0.90468878  0.51447650  0.23591832     2.11130
O388        O  0.94817242  0.43401605  0.23644589    -2.47650
O389        O  0.03986864  0.42997857  0.23947544    -0.79670
O390        O  0.95313478  0.51270602  0.18509938    -0.71870
O391        O  0.03955001  0.50922168  0.29410469    -2.32820
O392        O  0.04212633  0.50867957  0.18832297    -2.29030
O393        O  0.94504997  0.51330009  0.29124342    -0.73630
H394        H  0.93509696  0.62215224  0.23594355     0.78370
H395        H  0.05840092  0.50811172  0.31535829     0.79460
H396        H  0.92808730  0.40421536  0.23518649     0.81680
H397        H  0.06112728  0.50981248  0.16759177     0.79290
H398        H  0.01194526  0.55961415  0.36379688     0.42330
H399        H  0.96442420  0.46316307  0.36043077     0.41300
H400        H  0.99990856  0.32660819  0.27243366     0.40970
H401        H  0.96646475  0.33026511  0.20305441     0.38910
H402        H  0.99747629  0.45522213  0.11288937     0.42040
H403        H  0.02771201  0.55866767  0.11734907     0.36820
H404        H  0.02155988  0.69091037  0.21321572     0.42940
H405        H  0.98180494  0.69713843  0.28133462     0.39360
H406        H  0.00237254  0.32251864  0.17247005     0.44280
H407        H  0.01686559  0.61915139  0.11695668     0.43000
H408        H  0.98561002  0.69081356  0.32249464     0.43130
H409        H  0.99211035  0.40975420  0.36276661     0.43490
C410        C  0.26203249  0.37105856  0.07983033     0.03040
C411        C  0.29248389  0.39707755  0.05759942    -0.13110
C412        C  0.34017997  0.38363177  0.05768922     0.00540
C413        C  0.35557101  0.33858120  0.07598763    -0.11630
C414        C  0.32441344  0.31051138  0.09589594     0.03030
C415        C  0.27895541  0.32828805  0.09885050    -0.11050
H416        H  0.27977015  0.42906461  0.04167839     0.08630
H417        H  0.39166729  0.32578548  0.07545937     0.06160
H418        H  0.25675182  0.30864403  0.11708348     0.06010
C419        C  0.18976927  0.12593557  0.35493676     0.03040
C420        C  0.18287829  0.17800972  0.34588198    -0.13110
C421        C  0.13946531  0.20222082  0.34822849     0.00540
C422        C  0.10171280  0.17468269  0.36123007    -0.11630
C423        C  0.10795479  0.12206325  0.37141582     0.03030
C424        C  0.15245408  0.09782254  0.36820620    -0.11050
H425        H  0.21131383  0.19932215  0.33482152     0.08630
H426        H  0.06831055  0.19451968  0.36447065     0.06160
H427        H  0.15816602  0.05772139  0.37634466     0.06010
C428        C  0.78162871  0.15348629  0.35285406     0.03040
C429        C  0.78991915  0.20545288  0.34555752    -0.13110
C430        C  0.83430439  0.22527142  0.34788119     0.00540
C431        C  0.87126834  0.19354016  0.36097341    -0.11630
C432        C  0.86352707  0.14087823  0.37012287     0.03030
C433        C  0.81836727  0.12103534  0.36538643    -0.11050
H434        H  0.76187563  0.22992537  0.33513280     0.08630
H435        H  0.90528563  0.21004656  0.36483520     0.06160
H436        H  0.81184864  0.08080828  0.37188137     0.06010
C437        C  0.18375638  0.89227267  0.34711396     0.03040
C438        C  0.14359944  0.92011095  0.35852342    -0.13110
C439        C  0.10360071  0.89273381  0.36790290     0.00540
C440        C  0.10363477  0.83732685  0.36279228    -0.11630
C441        C  0.14383346  0.80946115  0.35065713     0.03030
C442        C  0.18409909  0.83748542  0.34550537    -0.11050
H443        H  0.14422905  0.96244751  0.36157105     0.08630
H444        H  0.07290028  0.81597785  0.36919826     0.06160
H445        H  0.21567182  0.81650681  0.33762909     0.06010
C446        C  0.77278956  0.89333587  0.35108410     0.03040
C447        C  0.78888317  0.85432395  0.32722218    -0.13110
C448        C  0.83418597  0.83484242  0.32914114     0.00540
C449        C  0.86800602  0.86302890  0.34786453    -0.11630
C450        C  0.85471191  0.90738879  0.36829678     0.03030
C451        C  0.80656846  0.91925940  0.37228126    -0.11050
H452        H  0.76490326  0.83437021  0.30953674     0.08630
H453        H  0.90344184  0.84793342  0.34901758     0.06160
H454        H  0.79627636  0.94644997  0.39318791     0.06010
O455        O  0.08318287  0.91927674  0.53996663    -0.75380
O456        O  0.04042804  0.95918205  0.58417087    -0.54290
C457        C  0.07456156  0.92965147  0.57270011     0.78350
O458        O  0.08141477  0.10918740  0.42762124    -0.59980
O459        O  0.04105006  0.06891368  0.38250488    -0.53010
C460        C  0.07383847  0.09859718  0.39485562     0.70360
O461        O  0.08675653  0.10325091  0.54264270    -0.74540
O462        O  0.04056674  0.07204217  0.58588667    -0.55100
C463        C  0.07640646  0.09687160  0.57514346     0.76370
O464        O  0.07465133  0.90649987  0.42458892    -0.59680
O465        O  0.03927748  0.95406260  0.38091372    -0.52800
C466        C  0.06926091  0.91909768  0.39213532     0.72960
Zr467      Zr  0.04688206  0.93349760  0.48262586     2.54710
O468        O  0.13026513  0.91676920  0.47957908    -0.80250
O469        O  0.03018879  0.84053094  0.48597152    -0.93660
Zr470      Zr  0.05249680  0.08778776  0.48476235     2.64680
O471        O  0.13712977  0.08683169  0.48546814    -0.98620
O472        O  0.04503627  0.18317881  0.48766573    -0.80680
O473        O  0.05026579  0.01097069  0.51802134    -0.84040
O474        O  0.04992569  0.01030875  0.44893742    -2.18750
O475        O  0.88016869  0.92325270  0.42562865    -0.67430
O476        O  0.92287559  0.95856494  0.38170778    -0.51990
C477        C  0.88856422  0.93146910  0.39311255     0.71340
O478        O  0.87914078  0.10906657  0.53924463    -0.60340
O479        O  0.92542462  0.07649817  0.58344302    -0.52310
C480        C  0.88951322  0.10275614  0.57185410     0.73150
O481        O  0.89072140  0.12428374  0.42661138    -0.71730
O482        O  0.92658814  0.07738933  0.38184413    -0.50410
C483        C  0.89668307  0.11249631  0.39383536     0.74530
O484        O  0.88174972  0.92474915  0.54036485    -0.67060
O485        O  0.92839832  0.95920187  0.58395967    -0.54260
C486        C  0.89345810  0.93183145  0.57294371     0.72910
Zr487      Zr  0.91267854  0.94384365  0.48284683     2.77540
O488        O  0.82814878  0.94737325  0.48528462    -0.97810
O489        O  0.91969191  0.84841927  0.48158290    -0.78630
Zr490      Zr  0.91894175  0.09779684  0.48381071     2.70070
O491        O  0.83690993  0.12179748  0.47906120    -0.79880
O492        O  0.93856680  0.18970401  0.49215139    -0.98960
Zr493      Zr  0.98311802  0.01676176  0.55429177     2.21500
Zr494      Zr  0.98215261  0.01476115  0.41152882     2.11130
O495        O  0.91484509  0.02030782  0.44845307    -2.47650
O496        O  0.91536330  0.02147330  0.51780663    -0.79670
O497        O  0.97933970  0.93698116  0.44622519    -0.71870
O498        O  0.98576284  0.09535660  0.52076326    -2.32820
O499        O  0.98021290  0.93747767  0.51882785    -2.29030
O500        O  0.98563518  0.09351005  0.44770482    -0.73630
H501        H  0.07775669  0.00819828  0.43492080     0.78370
H502        H  0.98683726  0.12611269  0.53619320     0.79460
H503        H  0.88686954  0.02255524  0.43427278     0.81680
H504        H  0.97939603  0.90699326  0.53347552     0.79290
H505        H  0.04906456  0.19273905  0.51303958     0.42330
H506        H  0.92963370  0.20612382  0.46954530     0.41300
H507        H  0.82129779  0.08806461  0.47446658     0.41190
H508        H  0.81824183  0.97284937  0.46719152     0.38910
H509        H  0.93171117  0.83916447  0.45772565     0.42040
H510        H  0.03704180  0.83161660  0.51085488     0.36820
H511        H  0.14358291  0.95192803  0.47703129     0.42940
H512        H  0.14658591  0.06196104  0.46617187     0.39360
H513        H  0.81807570  0.91288003  0.47576506     0.44280
H514        H  0.05524802  0.82255890  0.47224901     0.43000
H515        H  0.14583654  0.12179697  0.47719937     0.43130
H516        H  0.91556517  0.20390946  0.50938895     0.43490
C517        C  0.14820157  0.36294091  0.12276076    -0.01930
C518        C  0.14475182  0.41407173  0.13783670     0.07750
C519        C  0.16699458  0.45435520  0.12055366    -0.02050
C520        C  0.20543726  0.44272938  0.09942007    -0.02050
C521        C  0.21431776  0.39012629  0.08846246     0.07880
C522        C  0.18043063  0.35249356  0.09564717    -0.02250
Br523      Br  0.18070917  0.28588723  0.07003880    -0.00790
Br524      Br  0.10988327  0.30729877  0.13860642    -0.00870
Br525      Br  0.24566544  0.49965878  0.08972159    -0.00830
Br526      Br  0.13559414  0.52056005  0.11509404    -0.00810
C527        C  0.16163276  0.73218065  0.30881455    -0.01930
C528        C  0.14506412  0.75148290  0.34214694     0.07750
C529        C  0.13271565  0.71454177  0.36750297    -0.02050
C530        C  0.13028472  0.66074480  0.35771468    -0.02050
C531        C  0.14119133  0.64312000  0.32291978     0.07880
C532        C  0.16246220  0.67806232  0.30051954    -0.02250
Br533      Br  0.18896970  0.65233717  0.25676398    -0.00790
Br534      Br  0.17810095  0.77841902  0.27167698    -0.00870
Br535      Br  0.10806825  0.61086936  0.39072970    -0.00830
Br536      Br  0.11894863  0.73695525  0.41545516    -0.00810
C537        C  0.84010813  0.68659327  0.32945809    -0.01930
C538        C  0.84987097  0.67440811  0.29374335     0.07750
C539        C  0.85207983  0.71575392  0.26947113    -0.02050
C540        C  0.84737100  0.76828639  0.28111435    -0.02050
C541        C  0.84206024  0.78008713  0.31719349     0.07880
C542        C  0.83700327  0.73927242  0.34133994    -0.02250
Br543      Br  0.82746107  0.75548559  0.39094024    -0.00790
Br544      Br  0.83556860  0.63049045  0.36249356    -0.00870
Br545      Br  0.85088607  0.82480129  0.24811777    -0.00830
Br546      Br  0.86805848  0.70254403  0.22100910    -0.00810
C547        C  0.84448871  0.37331468  0.34537747    -0.01930
C548        C  0.84181366  0.38176396  0.30861780     0.07750
C549        C  0.83141280  0.33946603  0.28555138    -0.02050
C550        C  0.83183737  0.28804952  0.29819918    -0.02050
C551        C  0.83972650  0.27893314  0.33457172     0.07880
C552        C  0.84360050  0.32202063  0.35836621    -0.02250
Br553      Br  0.84849785  0.31068001  0.40851407    -0.00790
Br554      Br  0.85477218  0.43227247  0.37719366    -0.00870
Br555      Br  0.82440633  0.22984587  0.26506723    -0.00830
Br556      Br  0.82249216  0.35152748  0.23573408    -0.00810
C557        C  0.13797356  0.31283769  0.28408161    -0.01930
C558        C  0.13673568  0.35700380  0.30714025     0.07750
C559        C  0.14027707  0.35019540  0.34392342    -0.02050
C560        C  0.13993929  0.29946829  0.35771107    -0.02050
C561        C  0.13539998  0.25566244  0.33460170     0.07880
C562        C  0.13624487  0.26226826  0.29770892    -0.02250
Br563      Br  0.13292896  0.20199243  0.26581620    -0.00790
Br564      Br  0.13554897  0.32231387  0.23366731    -0.00870
Br565      Br  0.14483664  0.28988174  0.40804044    -0.00830
Br566      Br  0.14102324  0.41119015  0.37507908    -0.00810
C567        C  0.34372011  0.21842529  0.17138974    -0.01930
C568        C  0.35030922  0.17012368  0.15304331     0.07750
C569        C  0.34817075  0.16789573  0.11582620    -0.02050
C570        C  0.34155668  0.21431642  0.09692283    -0.02050
C571        C  0.33775221  0.26301011  0.11526952     0.07880
C572        C  0.33800046  0.26489564  0.15258847    -0.02250
Br573      Br  0.33195003  0.33142769  0.17795120    -0.00790
Br574      Br  0.34456731  0.22067480  0.22249425    -0.00870
Br575      Br  0.33754705  0.21130356  0.04595022    -0.00830
Br576      Br  0.35779093  0.10163382  0.09083335    -0.00810
C577        C  0.65396802  0.96137541  0.34281089    -0.01930
C578        C  0.63164035  0.92128026  0.32377458     0.07750
C579        C  0.64790005  0.86954543  0.32762639    -0.02050
C580        C  0.69071543  0.86031746  0.34496368    -0.02050
C581        C  0.72079234  0.90291338  0.35265653     0.07880
C582        C  0.69985034  0.95377520  0.35509820    -0.02250
Br583      Br  0.73126807  0.01396773  0.37388756    -0.00790
Br584      Br  0.61832160  0.02313176  0.35581173    -0.00870
Br585      Br  0.70715684  0.78979892  0.35882698    -0.00830
Br586      Br  0.61243549  0.81213626  0.30870340    -0.00810
C587        C  0.65152143  0.14359217  0.33721946    -0.01930
C588        C  0.65072088  0.12037021  0.30271590     0.07750
C589        C  0.69432817  0.10860624  0.28613387    -0.02050
C590        C  0.73612225  0.11175678  0.30518741    -0.02050
C591        C  0.73668486  0.13366385  0.33948941     0.07880
C592        C  0.69444622  0.15067733  0.35520287    -0.02250
Br593      Br  0.69605711  0.18326040  0.40177852    -0.00790
Br594      Br  0.59497998  0.16646960  0.36032921    -0.00870
Br595      Br  0.79385461  0.08844533  0.28326299    -0.00830
Br596      Br  0.69987973  0.09341291  0.23587152    -0.00810
C597        C  0.31722841  0.12070561  0.33875309    -0.01930
C598        C  0.31773113  0.09981417  0.30344532     0.07750
C599        C  0.27576156  0.07730963  0.28962744    -0.02050
C600        C  0.23537832  0.07724235  0.31021641    -0.02050
C601        C  0.23455105  0.10182960  0.34370466     0.07880
C602        C  0.27587664  0.12130225  0.35855955    -0.02250
Br603      Br  0.27376916  0.15323869  0.40543296    -0.00790
Br604      Br  0.37053836  0.15433367  0.35990770    -0.00870
Br605      Br  0.17814465  0.04976723  0.29069509    -0.00830
Br606      Br  0.26847939  0.04960858  0.24154940    -0.00810
C607        C  0.30744742  0.93668893  0.33723834    -0.01930
C608        C  0.31280613  0.92710758  0.30042007     0.07750
C609        C  0.27350621  0.91348625  0.27997676    -0.02050
C610        C  0.22938521  0.91402107  0.29512879    -0.02050
C611        C  0.22472345  0.91743119  0.33204257     0.07880
C612        C  0.26390387  0.92905033  0.35321042    -0.02250
Br613      Br  0.25738605  0.93445513  0.40382310    -0.00790
Br614      Br  0.35863109  0.96145830  0.36564718    -0.00870
Br615      Br  0.17479926  0.91096062  0.26525225    -0.00830
Br616      Br  0.28056424  0.88827276  0.23187517    -0.00810
C617        C  0.81191766  0.65477176  0.09148162    -0.01930
C618        C  0.76669878  0.64207045  0.10117290     0.07750
C619        C  0.75858966  0.62294300  0.13500294    -0.02050
C620        C  0.79517374  0.61765907  0.15929816    -0.02050
C621        C  0.84180249  0.62435821  0.14839025     0.07880
C622        C  0.84971906  0.64489163  0.11442493    -0.02250
Br623      Br  0.91123196  0.65886511  0.09768654    -0.00790
Br624      Br  0.82159581  0.68611637  0.04657625    -0.00870
Br625      Br  0.77902175  0.60447544  0.20796281    -0.00830
Br626      Br  0.69651213  0.60538660  0.14875146    -0.00810
C627        C  0.63187399  0.77149516  0.13946210    -0.01930
C628        C  0.65334432  0.77935090  0.10673532     0.07750
C629        C  0.66837535  0.82989782  0.09846980    -0.02050
C630        C  0.65836088  0.87297255  0.12152919    -0.02050
C631        C  0.63542418  0.86510653  0.15356895     0.07880
C632        C  0.62516915  0.81373715  0.16339398    -0.02250
Br633      Br  0.59732526  0.80233249  0.20875794    -0.00790
Br634      Br  0.60939630  0.70348573  0.15131790    -0.00870
Br635      Br  0.67304995  0.94312872  0.10854300    -0.00830
Br636      Br  0.70033884  0.84027849  0.05474037    -0.00810
C637        C  0.63522592  0.20302979  0.17338213    -0.01930
C638        C  0.63407495  0.15392561  0.15518234     0.07750
C639        C  0.64293070  0.15197277  0.11850280    -0.02050
C640        C  0.65041100  0.19846845  0.09999456    -0.02050
C641        C  0.64847807  0.24769530  0.11788874     0.07880
C642        C  0.64230939  0.24954475  0.15489807    -0.02250
Br643      Br  0.64107495  0.31644933  0.18005708    -0.00790
Br644      Br  0.62133717  0.20737327  0.22321057    -0.00870
Br645      Br  0.66274557  0.19488602  0.04992279    -0.00830
Br646      Br  0.63979065  0.08568736  0.09305593    -0.00810
C647        C  0.80479022  0.34125074  0.10651549    -0.01930
C648        C  0.76836376  0.37722683  0.09749227     0.07750
C649        C  0.77495965  0.43129742  0.10453169    -0.02050
C650        C  0.81590894  0.44718320  0.12107767    -0.02050
C651        C  0.84449977  0.41107053  0.13866927     0.07880
C652        C  0.84064726  0.35739267  0.12965454    -0.02250
Br653      Br  0.88331851  0.30595704  0.14894614    -0.00790
Br654      Br  0.80626989  0.27045130  0.08686400    -0.00870
Br655      Br  0.83987944  0.51359114  0.10998243    -0.00830
Br656      Br  0.72810928  0.48519390  0.09667571    -0.00810
C657        C  0.20976725  0.59469626  0.17049114    -0.01930
C658        C  0.16389504  0.61685240  0.16558897     0.07750
C659        C  0.15698374  0.65396329  0.13844244    -0.02050
C660        C  0.19299878  0.66373859  0.11495209    -0.02050
C661        C  0.23837873  0.64531876  0.12195136     0.07880
C662        C  0.24696110  0.61205660  0.15030009    -0.02250
Br663      Br  0.31012539  0.59005227  0.16112691    -0.00790
Br664      Br  0.22434536  0.53749673  0.20200777    -0.00870
Br665      Br  0.17942730  0.69867933  0.07116241    -0.00830
Br666      Br  0.09988361  0.69454754  0.13291138    -0.00810
C667        C  0.36366356  0.82910699  0.07849196    -0.01930
C668        C  0.32209316  0.80334780  0.08709283     0.07750
C669        C  0.28645797  0.83601824  0.10344483    -0.02050
C670        C  0.29818165  0.88374548  0.12122438    -0.02050
C671        C  0.34239092  0.90363830  0.11650612     0.07880
C672        C  0.36801644  0.88227375  0.08787948    -0.02250
Br673      Br  0.41155118  0.92536409  0.06427786    -0.00790
Br674      Br  0.41984089  0.79494749  0.06156796    -0.00870
Br675      Br  0.25277580  0.92565377  0.14674355    -0.00830
Br676      Br  0.22156357  0.82055196  0.09855329    -0.00810
C677        C  0.33459759  0.23596663  0.83368039    -0.01930
C678        C  0.33297186  0.23690840  0.87093674     0.07750
C679        C  0.33620442  0.18968909  0.88934846    -0.02050
C680        C  0.34480220  0.14208327  0.87067671    -0.02050
C681        C  0.34815931  0.14135153  0.83346606     0.07880
C682        C  0.34106304  0.18817160  0.81498115    -0.02250
Br683      Br  0.34597451  0.18764865  0.76404484    -0.00790
Br684      Br  0.33034860  0.30057989  0.80823977    -0.00870
Br685      Br  0.35628012  0.07845143  0.89607563    -0.00830
Br686      Br  0.33036717  0.19079197  0.94012438    -0.00810
C687        C  0.31838823  0.83626474  0.87859194    -0.01930
C688        C  0.33061587  0.78386799  0.86893978     0.07750
C689        C  0.34813795  0.77209142  0.83485709    -0.02050
C690        C  0.35527164  0.81262237  0.81136571    -0.02050
C691        C  0.34674683  0.86536155  0.82209929     0.07880
C692        C  0.32642167  0.87695598  0.85506454    -0.02250
Br693      Br  0.31308197  0.94892465  0.86868298    -0.00790
Br694      Br  0.29362181  0.85258899  0.92490390    -0.00870
Br695      Br  0.38221434  0.79654884  0.76550541    -0.00830
Br696      Br  0.36388133  0.70071782  0.82006022    -0.00810
C697        C  0.64513221  0.82842970  0.88830313    -0.01930
C698        C  0.65821463  0.78111883  0.87083615     0.07750
C699        C  0.66805776  0.78122741  0.83419692    -0.02050
C700        C  0.66129551  0.82727618  0.81480989    -0.02050
C701        C  0.64336656  0.87305631  0.83158186     0.07880
C702        C  0.63768862  0.87419943  0.86873869    -0.02250
Br703      Br  0.61459178  0.93754725  0.89210068    -0.00790
Br704      Br  0.63643508  0.83007657  0.93886404    -0.00870
Br705      Br  0.67147865  0.82639602  0.76440062    -0.00830
Br706      Br  0.68817791  0.71758800  0.80978670    -0.00810
C707        C  0.65419544  0.13464209  0.63855064    -0.01930
C708        C  0.65459732  0.11392471  0.67315273     0.07750
C709        C  0.69844535  0.10832199  0.69079525    -0.02050
C710        C  0.74008087  0.11646657  0.67305079    -0.02050
C711        C  0.73950649  0.13529130  0.63853363     0.07880
C712        C  0.69657205  0.14562820  0.62159245    -0.02250
Br713      Br  0.69641738  0.17447242  0.57496170    -0.00790
Br714      Br  0.59663468  0.14720382  0.61341075    -0.00870
Br715      Br  0.79914758  0.10153880  0.69622632    -0.00830
Br716      Br  0.70401015  0.09331609  0.74051690    -0.00810
C717        C  0.66767132  0.94352561  0.63370910    -0.01930
C718        C  0.64477056  0.90327215  0.65044846     0.07750
C719        C  0.66406572  0.85221443  0.64832115    -0.02050
C720        C  0.70833211  0.84352204  0.63293553    -0.02050
C721        C  0.73641001  0.88688636  0.62464857     0.07880
C722        C  0.71451472  0.93725540  0.62415054    -0.02250
Br723      Br  0.74801398  0.00005117  0.61618172    -0.00790
Br724      Br  0.63302022  0.00594662  0.62206443    -0.00870
Br725      Br  0.72921656  0.77231984  0.62243274    -0.00830
Br726      Br  0.63025002  0.79503081  0.66699607    -0.00810
C727        C  0.26579734  0.90574414  0.61688752    -0.01930
C728        C  0.22754170  0.89883908  0.63937742     0.07750
C729        C  0.23537955  0.89822906  0.67625464    -0.02050
C730        C  0.28065529  0.89863492  0.69009566    -0.02050
C731        C  0.31904202  0.90827715  0.66825872     0.07880
C732        C  0.31107686  0.91254037  0.63139535    -0.02250
Br733      Br  0.36131086  0.93000494  0.60093091    -0.00790
Br734      Br  0.25639090  0.90533407  0.56637289    -0.00870
Br735      Br  0.28914128  0.88395714  0.73952730    -0.00830
Br736      Br  0.18352179  0.89914585  0.70863261    -0.00810
C737        C  0.27874866  0.07225556  0.68008552    -0.01930
C738        C  0.32062826  0.09754372  0.66997901     0.07750
C739        C  0.31817003  0.13031035  0.64005966    -0.02050
C740        C  0.27524998  0.13924922  0.62221687    -0.02050
C741        C  0.23471303  0.11420052  0.63276663     0.07880
C742        C  0.23736645  0.07873616  0.66042818    -0.02250
Br743      Br  0.18195398  0.04199527  0.67330654    -0.00790
Br744      Br  0.27279303  0.03164975  0.72254429    -0.00870
Br745      Br  0.27092269  0.18717922  0.58357226    -0.00830
Br746      Br  0.37157322  0.16779455  0.62485729    -0.00810
C747        C  0.63974522  0.23518030  0.82862495    -0.01930
C748        C  0.65377493  0.23176650  0.86428830     0.07750
C749        C  0.66428545  0.18213059  0.87840949    -0.02050
C750        C  0.65725873  0.13610347  0.85774723    -0.02050
C751        C  0.64101308  0.13939534  0.82260225     0.07880
C752        C  0.63470014  0.18933377  0.80765821    -0.02250
Br753      Br  0.61458156  0.19512755  0.75905128    -0.00790
Br754      Br  0.62585414  0.30278787  0.80864545    -0.00870
Br755      Br  0.66675137  0.06813495  0.87797426    -0.00830
Br756      Br  0.68630755  0.17742248  0.92657853    -0.00810
C757        C  0.12812531  0.34659768  0.89127551    -0.01930
C758        C  0.12233080  0.36725438  0.85728533     0.07750
C759        C  0.16128290  0.38431529  0.83884826    -0.02050
C760        C  0.20492872  0.38478264  0.85536712    -0.02050
C761        C  0.21077621  0.36427014  0.88936893     0.07880
C762        C  0.17251563  0.34399697  0.90700352    -0.02250
Br763      Br  0.18124325  0.31335021  0.95277637    -0.00790
Br764      Br  0.07481017  0.32275902  0.91613796    -0.00870
Br765      Br  0.25696455  0.41364129  0.83118644    -0.00830
Br766      Br  0.15510768  0.41000135  0.79146870    -0.00810
C767        C  0.12467534  0.66557597  0.90643806    -0.01930
C768        C  0.11301855  0.66614083  0.86996658     0.07750
C769        C  0.14859071  0.67277838  0.84510445    -0.02050
C770        C  0.19515706  0.67036969  0.85599094    -0.02050
C771        C  0.20694105  0.66908969  0.89227791     0.07880
C772        C  0.17148617  0.66848994  0.91756586    -0.02250
Br773      Br  0.18725478  0.67266613  0.96719542    -0.00790
Br774      Br  0.07622482  0.66415646  0.94121239    -0.00870
Br775      Br  0.24323554  0.66766300  0.82061234    -0.00830
Br776      Br  0.13534321  0.68595778  0.79591423    -0.00810
C777        C  0.85984279  0.67800289  0.90031210    -0.01930
C778        C  0.86399821  0.66054254  0.86480354     0.07750
C779        C  0.82396955  0.64322308  0.84662761    -0.02050
C780        C  0.78333262  0.63424896  0.86524519    -0.02050
C781        C  0.77772985  0.65617383  0.89941585     0.07880
C782        C  0.81587026  0.68017173  0.91635162    -0.02250
Br783      Br  0.80669214  0.72003582  0.95955180    -0.00790
Br784      Br  0.91374775  0.70226866  0.92582395    -0.00870
Br785      Br  0.73357761  0.59618440  0.84246152    -0.00830
Br786      Br  0.81947160  0.64299594  0.79598165    -0.00810
C787        C  0.85843942  0.35047987  0.89145261    -0.01930
C788        C  0.86518446  0.36139588  0.85550420     0.07750
C789        C  0.82653110  0.36633708  0.83265711    -0.02050
C790        C  0.78157352  0.36599855  0.84636368    -0.02050
C791        C  0.77473429  0.35615094  0.88243621     0.07880
C792        C  0.81321235  0.34670924  0.90475554    -0.02250
Br793      Br  0.80364015  0.32952371  0.95346188    -0.00790
Br794      Br  0.91155594  0.34267734  0.92236952    -0.00870
Br795      Br  0.72909650  0.38091277  0.81582920    -0.00830
Br796      Br  0.83490348  0.37837255  0.78289454    -0.00810
C797        C  0.88876428  0.75188225  0.72105355    -0.01930
C798        C  0.90623724  0.70607940  0.70317869     0.07750
C799        C  0.91293267  0.70683971  0.66624246    -0.02050
C800        C  0.89926340  0.75139689  0.64712677    -0.02050
C801        C  0.88098641  0.79645504  0.66504375     0.07880
C802        C  0.87697126  0.79698592  0.70206907    -0.02250
Br803      Br  0.85582804  0.86031796  0.72683974    -0.00790
Br804      Br  0.88021250  0.75417279  0.77166233    -0.00870
Br805      Br  0.90381227  0.74947906  0.59614761    -0.00830
Br806      Br  0.94406848  0.64874401  0.64188044    -0.00810
C807        C  0.06761616  0.79022148  0.68070871    -0.01930
C808        C  0.09886345  0.77910279  0.65303244     0.07750
C809        C  0.11844699  0.72829453  0.64891742    -0.02050
C810        C  0.10878557  0.68918438  0.67331370    -0.02050
C811        C  0.07558458  0.69893233  0.70054465     0.07880
C812        C  0.05513906  0.75057654  0.70386003    -0.02250
Br813      Br  0.01083728  0.77123379  0.74019128    -0.00790
Br814      Br  0.04405601  0.86148466  0.68861576    -0.00870
Br815      Br  0.14630227  0.62529246  0.67053537    -0.00830
Br816      Br  0.15897896  0.71247383  0.60935775    -0.00810
C817        C  0.10159723  0.29220031  0.64381829    -0.01930
C818        C  0.11180520  0.24448489  0.66042547     0.07750
C819        C  0.11216042  0.24247135  0.69757820    -0.02050
C820        C  0.10224522  0.28798351  0.71816345    -0.02050
C821        C  0.08998791  0.33582175  0.70172758     0.07880
C822        C  0.08977352  0.33748488  0.66428030    -0.02250
Br823      Br  0.06972766  0.39986533  0.64022971    -0.00790
Br824      Br  0.10445250  0.29533556  0.59288653    -0.00870
Br825      Br  0.10577021  0.28359773  0.76903938    -0.00830
Br826      Br  0.12488681  0.17643245  0.72028776    -0.00810
C827        C  0.90512179  0.24813868  0.67591639    -0.01930
C828        C  0.86818504  0.25720235  0.65215298     0.07750
C829        C  0.84877211  0.30805171  0.64900738    -0.02050
C830        C  0.86462641  0.34946813  0.67093769    -0.02050
C831        C  0.90329018  0.34132480  0.69402705     0.07880
C832        C  0.92427398  0.29013710  0.69520788    -0.02250
Br833      Br  0.98053268  0.27460803  0.72158764    -0.00790
Br834      Br  0.92783878  0.17711395  0.68422274    -0.00870
Br835      Br  0.82985797  0.41527357  0.67012237    -0.00830
Br836      Br  0.80060570  0.32106077  0.61408136    -0.00810
loop_ 
_geom_bond_atom_site_label_1 
_geom_bond_atom_site_label_2 
_geom_bond_distance 
_geom_bond_site_symmetry_2 
_ccdc_geom_bond_type 
O1          Zr13   2.399       .  S
O1            C3   1.275       .  A
O2          Zr39   2.451       .  S
O2            C3   1.290       .  A
C3          C788   1.462       .  S
O4          Zr16   2.478       .  S
O4            C6   1.296       .  A
O5          Zr40   2.380       .  S
O5            C6   1.278       .  A
C6          C798   1.481       .  S
O7          Zr16   2.459       .  S
O7            C9   1.290       .  A
O8          Zr39   2.407       .  S
O8            C9   1.282       .  A
C9          C831   1.497       .  S
O10         Zr13   2.401       .  S
O10          C12   1.270       .  A
O11         Zr40   2.455       .  S
O11          C12   1.281       .  A
C12         C778   1.477       .  S
Zr13         O14   2.433       .  S
Zr13         O15   2.439       .  S
Zr13         O19   2.365       .  S
Zr13         O20   2.364       .  S
Zr13         O43   2.378       .  S
Zr13         O45   2.372       .  S
O14          H57   0.990       .  S
O15          H56   0.990       .  S
O15          H60   0.990       .  S
Zr16         O17   2.434       .  S
Zr16         O18   2.434       .  S
Zr16         O20   2.357       .  S
Zr16         O19   2.381       .  S
Zr16         O44   2.362       .  S
Zr16         O46   2.362       .  S
O17          H58   0.989       .  S
O17          H61   0.990       .  S
O18          H51   0.990       .  S
O19         Zr39   2.381       .  S
O20         Zr40   2.383       .  S
O20          H47   0.958       .  S
O21         Zr33   2.419       .  S
O21          C23   1.276       .  A
O22         Zr40   2.433   1_455  S
O22          C23   1.283       .  A
C23         C768   1.485       .  S
O24         Zr36   2.483       .  S
O24          C26   1.296       .  A
O25         Zr39   2.404   1_455  S
O25          C26   1.284       .  A
C26         C821   1.490       .  S
O27         Zr36   2.467       .  S
O27          C29   1.290       .  A
O28         Zr40   2.403   1_455  S
O28          C29   1.280       .  A
C29         C811   1.508       .  S
O30         Zr33   2.400       .  S
O30          C32   1.271       .  A
O31         Zr39   2.451   1_455  S
O31          C32   1.287       .  A
C32         C758   1.462       .  S
Zr33         O34   2.435       .  S
Zr33         O35   2.433       .  S
Zr33         O41   2.374       .  S
Zr33         O42   2.373       .  S
Zr33         O45   2.379   1_455  S
Zr33         O43   2.362   1_455  S
O34          H54   0.989       .  S
O34          H59   0.990       .  S
O35          H55   0.991       .  S
Zr36         O37   2.436       .  S
Zr36         O38   2.434       .  S
Zr36         O42   2.375       .  S
Zr36         O41   2.383       .  S
Zr36         O46   2.362   1_455  S
Zr36         O44   2.357   1_455  S
O37          H53   0.989       .  S
O38          H52   0.990       .  S
O38          H62   0.989       .  S
Zr39         O42   2.379   1_655  S
Zr39         O44   2.396       .  S
Zr39         O45   2.382       .  S
Zr40         O41   2.395   1_655  S
Zr40         O43   2.386       .  S
Zr40         O46   2.393       .  S
O41          H49   0.963       .  S
O44          H48   0.965       .  S
O45          H50   0.964       .  S
C63         C791   1.471       .  S
C63          C64   1.389       .  A
C63          C68   1.410       .  A
C64          C65   1.385       .  A
C64          H69   1.086       .  S
C65         C748   1.480       .  S
C65          C66   1.409       .  A
C66          C67   1.422       .  A
C66          H70   1.083       .  S
C67         C205   1.501       .  S
C67          C68   1.415       .  A
C68          H71   1.083       .  S
O72         Zr84   2.364       .  S
O72          C74   1.271       .  A
O73        Zr110   2.484   1_545  S
O73          C74   1.295       .  A
C74         C751   1.469       .  S
O75         Zr87   2.361       .  S
O75          C77   1.273       .  A
O76        Zr111   2.454   1_565  S
O76          C77   1.290       .  A
C77         C691   1.460       .  S
O78         Zr87   2.364       .  S
O78          C80   1.273       .  A
O79        Zr110   2.471       .  S
O79          C80   1.294       .  A
C80         C701   1.469       .  S
O81         Zr84   2.374       .  S
O81          C83   1.274       .  A
O82        Zr111   2.452       .  S
O82          C83   1.290       .  A
C83         C681   1.461       .  S
Zr84         O85   2.435       .  S
Zr84         O86   2.438       .  S
Zr84         O90   2.360   1_545  S
Zr84         O91   2.349       .  S
Zr84        O114   2.362       .  S
Zr84        O116   2.365       .  S
O85         H128   0.990       .  S
O86         H127   0.990       .  S
O86         H131   0.990       .  S
Zr87         O88   2.437       .  S
Zr87         O89   2.434       .  S
Zr87         O91   2.361   1_565  S
Zr87         O90   2.356       .  S
Zr87        O115   2.364       .  S
Zr87        O117   2.362       .  S
O88         H129   0.990       .  S
O88         H132   0.990       .  S
O89         H122   0.990       .  S
O90        Zr110   2.361       .  S
O91        Zr111   2.357       .  S
O91         H118   0.966       .  S
O92        Zr104   2.524       .  S
O92          C94   1.302       .  A
O93        Zr111   2.389       .  S
O93          C94   1.273       .  A
C94         C738   1.519       .  S
O95        Zr107   2.481       .  S
O95          C97   1.295       .  A
O96        Zr110   2.424       .  S
O96          C97   1.288       .  A
C97         C718   1.488       .  S
O98        Zr107   2.517       .  S
O98         C100   1.302       .  A
O99        Zr111   2.386   1_565  S
O99         C100   1.279       .  A
C100        C731   1.500       .  S
O101       Zr104   2.524       .  S
O101        C103   1.304       .  A
O102       Zr110   2.382   1_545  S
O102        C103   1.279       .  A
C103        C708   1.514       .  S
Zr104       O105   2.434       .  S
Zr104       O106   2.434       .  S
Zr104       O112   2.376       .  S
Zr104       O113   2.378       .  S
Zr104       O116   2.379       .  S
Zr104       O114   2.387       .  S
O105        H125   0.990       .  S
O105        H130   0.990       .  S
O106        H126   0.990       .  S
Zr107       O108   2.433       .  S
Zr107       O109   2.433       .  S
Zr107       O113   2.383   1_565  S
Zr107       O112   2.360   1_565  S
Zr107       O117   2.376       .  S
Zr107       O115   2.392       .  S
O108        H124   0.990       .  S
O109        H123   0.990       .  S
O109        H133   0.990       .  S
Zr110       O113   2.404   1_565  S
Zr110       O115   2.387       .  S
Zr110       O116   2.384   1_565  S
Zr111       O112   2.404       .  S
Zr111       O114   2.373       .  S
Zr111       O117   2.381   1_545  S
O112        H120   0.964       .  S
O115        H119   0.966       .  S
O116        H121   0.963       .  S
C134        C771   1.480       .  S
C134        C135   1.392       .  A
C134        C139   1.413       .  A
C135        C136   1.386       .  A
C135        H140   1.086       .  S
C136        C688   1.475       .  S
C136        C137   1.403       .  A
C137        C138   1.413       .  A
C137        H141   1.083       .  S
C138        C225   1.495       .  S
C138        C139   1.418       .  A
C139        H142   1.083       .  S
C143        C781   1.473       .  S
C143        C144   1.390       .  A
C143        C148   1.409       .  A
C144        C145   1.384       .  A
C144        H149   1.086       .  S
C145        C698   1.484       .  S
C145        C146   1.412       .  A
C146        C147   1.423       .  A
C146        H150   1.083       .  S
C147        C222   1.504       .  S
C147        C148   1.416       .  A
C148        H151   1.083       .  S
C152        C761   1.467       .  S
C152        C153   1.389       .  A
C152        C157   1.409       .  A
C153        C154   1.383       .  A
C153        H158   1.086       .  S
C154        C678   1.472       .  S
C154        C155   1.404       .  A
C155        C156   1.418       .  A
C155        H159   1.083       .  S
C156        C202   1.493       .  S
C156        C157   1.412       .  A
C157        H160   1.083       .  S
C161        C741   1.489       .  S
C161        C162   1.396       .  A
C161        C166   1.412       .  A
C162        C163   1.397       .  A
C162        H167   1.085       .  S
C163        C818   1.478       .  S
C163        C164   1.406       .  A
C164        C165   1.406       .  A
C164        H168   1.084       .  S
C165        C463   1.481       .  S
C165        C166   1.416       .  A
C166        H169   1.084       .  S
C170        C728   1.499       .  S
C170        C171   1.401       .  A
C170        C175   1.416       .  A
C171        C172   1.395       .  A
C171        H176   1.085       .  S
C172        C808   1.483       .  S
C172        C173   1.400       .  A
C173        C174   1.403       .  A
C173        H177   1.084       .  S
C174        C457   1.478       .  S
C174        C175   1.419       .  A
C175        H178   1.083       .  S
C179        C711   1.487       .  S
C179        C180   1.398       .  A
C179        C184   1.414       .  A
C180        C181   1.397       .  A
C180        H185   1.085       .  S
C181        C828   1.474       .  S
C181        C182   1.399       .  A
C182        C183   1.396       .  A
C182        H186   1.085       .  S
C183        C480   1.471       .  S
C183        C184   1.413       .  A
C184        H187   1.080       .  S
C188        C721   1.513       .  S
C188        C189   1.402       .  A
C188        C193   1.419       .  A
C189        C190   1.399       .  A
C189        H194   1.083       .  S
C190        C801   1.478       .  S
C190        C191   1.401       .  A
C191        C192   1.401       .  A
C191        H195   1.084       .  S
C192        C486   1.484       .  S
C192        C193   1.419       .  A
C193        H196   1.082       .  S
O197       Zr209   2.424       .  S
O197        C199   1.284       .  A
O198       Zr235   2.486   1_554  S
O198        C199   1.300       .  A
C199        C270   1.504       .  S
O200       Zr212   2.446       .  S
O200        C202   1.289       .  A
O201       Zr236   2.456       .  S
O201        C202   1.293       .  A
O203       Zr212   2.445       .  S
O203        C205   1.289       .  A
O204       Zr235   2.463       .  S
O204        C205   1.295       .  A
O206       Zr209   2.424       .  S
O206        C208   1.285       .  A
O207       Zr236   2.452   1_554  S
O207        C208   1.292       .  A
C208        C412   1.486       .  S
Zr209       O210   2.434       .  S
Zr209       O211   2.434       .  S
Zr209       O215   2.367   1_554  S
Zr209       O216   2.362   1_554  S
Zr209       O239   2.375       .  S
Zr209       O241   2.371       .  S
O210        H253   0.990       .  S
O211        H252   0.990       .  S
O211        H256   0.990       .  S
Zr212       O213   2.438       .  S
Zr212       O214   2.434       .  S
Zr212       O216   2.368       .  S
Zr212       O215   2.369       .  S
Zr212       O240   2.375       .  S
Zr212       O242   2.381       .  S
O213        H254   0.990       .  S
O213        H257   0.990       .  S
O214        H247   0.990       .  S
O215       Zr235   2.380       .  S
O216       Zr236   2.394       .  S
O216        H243   0.964       .  S
O217       Zr229   2.463       .  S
O217        C219   1.291       .  A
O218       Zr236   2.466   1_554  S
O218        C219   1.295       .  A
C219        C261   1.494       .  S
O220       Zr232   2.459       .  S
O220        C222   1.292       .  A
O221       Zr235   2.459       .  S
O221        C222   1.295       .  A
O223       Zr232   2.469       .  S
O223        C225   1.295       .  A
O224       Zr236   2.440       .  S
O224        C225   1.290       .  A
O226       Zr229   2.440       .  S
O226        C228   1.288       .  A
O227       Zr235   2.454   1_554  S
O227        C228   1.293       .  A
C228        C279   1.492       .  S
Zr229       O230   2.435       .  S
Zr229       O231   2.434       .  S
Zr229       O237   2.361   1_554  S
Zr229       O238   2.367   1_554  S
Zr229       O241   2.384       .  S
Zr229       O239   2.379       .  S
O230        H250   0.990       .  S
O230        H255   0.990       .  S
O231        H251   0.990       .  S
Zr232       O233   2.434       .  S
Zr232       O234   2.433       .  S
Zr232       O238   2.369       .  S
Zr232       O237   2.368       .  S
Zr232       O242   2.377       .  S
Zr232       O240   2.383       .  S
O233        H249   0.990       .  S
O234        H248   0.990       .  S
O234        H258   0.990       .  S
Zr235       O238   2.393       .  S
Zr235       O240   2.406       .  S
Zr235       O241   2.401   1_556  S
Zr236       O237   2.396       .  S
Zr236       O239   2.396   1_556  S
Zr236       O242   2.404       .  S
O237        H245   0.964       .  S
O240        H244   0.966       .  S
O241        H246   0.966       .  S
C259        C661   1.476       .  S
C259        C260   1.400       .  A
C259        C264   1.396       .  A
C260        C261   1.398       .  A
C260        H265   1.080       .  S
C261        C262   1.419       .  A
C262        C263   1.428       .  A
C262        H266   1.074       .  S
C263        C668   1.527       .  S
C263        C264   1.404       .  A
C264        H267   1.081       .  S
C268        C648   1.490       .  S
C268        C269   1.412       .  A
C268        C273   1.399       .  A
C269        C270   1.408       .  A
C269        H274   1.081       .  S
C270        C271   1.425       .  A
C271        C272   1.411       .  A
C271        H275   1.083       .  S
C272        C641   1.491       .  S
C272        C273   1.387       .  A
C273        H276   1.084       .  S
C277        C618   1.470       .  S
C277        C278   1.408       .  A
C277        C282   1.391       .  A
C278        C279   1.410       .  A
C278        H283   1.083       .  S
C279        C280   1.418       .  A
C280        C281   1.407       .  A
C280        H284   1.083       .  S
C281        C628   1.478       .  S
C281        C282   1.387       .  A
C282        H285   1.086       .  S
O286       Zr298   2.373       .  S
O286        C288   1.277       .  A
O287       Zr324   2.502   1_565  S
O287        C288   1.299       .  A
C288        C671   1.500       .  S
O289       Zr301   2.457       .  S
O289        C291   1.290       .  A
O290       Zr325   2.434   1_565  S
O290        C291   1.290       .  A
C291        C578   1.480       .  S
O292       Zr301   2.494       .  S
O292        C294   1.297       .  A
O293       Zr324   2.395   1_565  S
O293        C294   1.282       .  A
C294        C608   1.489       .  S
O295       Zr298   2.379       .  S
O295        C297   1.275       .  A
O296       Zr325   2.458   1_565  S
O296        C297   1.291       .  A
C297        C631   1.465       .  S
Zr298       O299   2.434       .  S
Zr298       O300   2.433       .  S
Zr298       O304   2.369       .  S
Zr298       O305   2.358       .  S
Zr298       O328   2.363   1_565  S
Zr298       O330   2.367   1_565  S
O299        H342   0.990       .  S
O300        H341   0.990       .  S
O300        H345   0.990       .  S
Zr301       O302   2.434       .  S
Zr301       O303   2.434       .  S
Zr301       O305   2.375       .  S
Zr301       O304   2.382       .  S
Zr301       O329   2.339   1_565  S
Zr301       O331   2.384   1_565  S
O302        H343   0.990       .  S
O302        H346   0.990       .  S
O303        H336   0.990       .  S
O304       Zr324   2.386   1_565  S
O305       Zr325   2.386   1_565  S
O305        H332   0.964       .  S
O306       Zr318   2.364       .  S
O306        C308   1.270       .  A
O307       Zr325   2.504       .  S
O307        C308   1.299       .  A
C308        C638   1.477       .  S
O309       Zr321   2.497       .  S
O309        C311   1.296       .  A
O310       Zr324   2.406       .  S
O310        C311   1.274       .  A
C311        C598   1.511       .  S
O312       Zr321   2.535       .  S
O312        C314   1.305       .  A
O313       Zr325   2.351       .  S
O313        C314   1.272       .  A
C314        C588   1.512       .  S
O315       Zr318   2.401       .  S
O315        C317   1.275       .  A
O316       Zr324   2.439       .  S
O316        C317   1.284       .  A
C317        C568   1.460       .  S
Zr318       O319   2.442       .  S
Zr318       O320   2.437       .  S
Zr318       O326   2.379       .  S
Zr318       O327   2.353       .  S
Zr318       O330   2.343       .  S
Zr318       O328   2.371       .  S
O319        H339   0.990       .  S
O319        H344   0.990       .  S
O320        H340   0.990       .  S
Zr321       O322   2.434       .  S
Zr321       O323   2.435       .  S
Zr321       O327   2.383       .  S
Zr321       O326   2.376       .  S
Zr321       O331   2.362       .  S
Zr321       O329   2.389       .  S
O322        H338   0.990       .  S
O323        H337   0.990       .  S
O323        H347   0.990       .  S
Zr324       O327   2.386       .  S
Zr324       O329   2.413       .  S
Zr324       O330   2.364       .  S
Zr325       O326   2.387       .  S
Zr325       O328   2.363       .  S
Zr325       O331   2.398       .  S
O326        H334   0.964       .  S
O329        H333   0.962       .  S
O330        H335   0.965       .  S
O348       Zr360   2.471   1_455  S
O348        C350   1.293       .  A
O349       Zr386   2.385       .  S
O349        C350   1.276       .  A
C350        C658   1.506       .  S
O351       Zr363   2.394       .  S
O351        C353   1.278       .  A
O352       Zr387   2.473       .  S
O352        C353   1.294       .  A
C353        C538   1.470       .  S
O354       Zr363   2.377   1_455  S
O354        C356   1.276       .  A
O355       Zr386   2.484       .  S
O355        C356   1.298       .  A
C356        C531   1.483       .  S
O357       Zr360   2.460       .  S
O357        C359   1.290       .  A
O358       Zr387   2.380       .  S
O358        C359   1.279       .  A
C359        C621   1.493       .  S
Zr360       O361   2.434   1_655  S
Zr360       O362   2.436   1_655  S
Zr360       O366   2.368   1_655  S
Zr360       O367   2.347       .  S
Zr360       O390   2.376       .  S
Zr360       O392   2.340   1_655  S
O361        H404   0.990       .  S
O362        H403   0.990       .  S
O362        H407   0.990       .  S
Zr363       O364   2.439   1_655  S
Zr363       O365   2.434       .  S
Zr363       O367   2.360       .  S
Zr363       O366   2.370   1_655  S
Zr363       O391   2.361   1_655  S
Zr363       O393   2.357       .  S
O364        H405   0.990   1_455  S
O364        H408   0.990   1_455  S
O365        H398   0.990   1_655  S
O366       Zr386   2.385       .  S
O367       Zr387   2.389       .  S
O367        H394   0.961       .  S
O368       Zr380   2.412       .  S
O368        C370   1.280       .  A
O369       Zr387   2.453       .  S
O369        C370   1.293       .  A
C370        C651   1.479       .  S
O371       Zr383   2.382   1_455  S
O371        C373   1.277       .  A
O372       Zr386   2.445       .  S
O372        C373   1.290       .  A
C373        C558   1.458       .  S
O374       Zr383   2.375       .  S
O374        C376   1.276       .  A
O375       Zr387   2.464       .  S
O375        C376   1.294       .  A
C376        C548   1.467       .  S
O377       Zr380   2.391   1_455  S
O377        C379   1.277       .  A
O378       Zr386   2.482       .  S
O378        C379   1.299       .  A
C379        C518   1.474       .  S
Zr380       O381   2.435       .  S
Zr380       O382   2.434       .  S
Zr380       O388   2.356       .  S
Zr380       O389   2.366   1_655  S
Zr380       O392   2.371   1_655  S
Zr380       O390   2.359       .  S
O381        H401   0.990       .  S
O381        H406   0.990   1_655  S
O382        H402   0.990       .  S
Zr383       O384   2.435       .  S
Zr383       O385   2.434       .  S
Zr383       O389   2.369   1_655  S
Zr383       O388   2.371       .  S
Zr383       O393   2.363       .  S
Zr383       O391   2.350   1_655  S
O384        H400   0.990       .  S
O385        H399   0.990       .  S
O385        H409   0.990       .  S
Zr386       O389   2.383       .  S
Zr386       O391   2.386       .  S
Zr386       O392   2.394       .  S
Zr387       O388   2.379       .  S
Zr387       O390   2.385       .  S
Zr387       O393   2.384       .  S
O388        H396   0.966       .  S
O391        H395   0.966       .  S
O392        H397   0.962       .  S
C410        C521   1.484       .  S
C410        C411   1.409       .  A
C410        C415   1.397       .  A
C411        C412   1.409       .  A
C411        H416   1.080       .  S
C412        C413   1.415       .  A
C413        C414   1.398       .  A
C413        H417   1.083       .  S
C414        C571   1.472       .  S
C414        C415   1.381       .  A
C415        H418   1.084       .  S
C419        C601   1.478       .  S
C419        C420   1.388       .  A
C419        C424   1.409       .  A
C420        C421   1.385       .  A
C420        H425   1.086       .  S
C421        C561   1.470       .  S
C421        C422   1.408       .  A
C422        C423   1.412       .  A
C422        H426   1.083       .  S
C423        C460   1.477       .  S
C423        C424   1.416       .  A
C424        H427   1.083       .  S
C428        C591   1.481       .  S
C428        C429   1.386       .  A
C428        C433   1.414       .  A
C429        C430   1.388       .  A
C429        H434   1.086       .  S
C430        C551   1.481       .  S
C430        C431   1.416       .  A
C431        C432   1.418       .  A
C431        H435   1.083       .  S
C432        C483   1.491       .  S
C432        C433   1.416       .  A
C433        H436   1.081       .  S
C437        C611   1.482       .  S
C437        C438   1.409       .  A
C437        C442   1.396       .  A
C438        C439   1.414       .  A
C438        H443   1.083       .  S
C439        C466   1.492       .  S
C439        C440   1.420       .  A
C440        C441   1.419       .  A
C440        H444   1.083       .  S
C441        C528   1.504       .  S
C441        C442   1.395       .  A
C442        H445   1.085       .  S
C446        C581   1.514       .  S
C446        C447   1.400       .  A
C446        C451   1.420       .  A
C447        C448   1.388       .  A
C447        H452   1.083       .  S
C448        C541   1.469       .  S
C448        C449   1.400       .  A
C449        C450   1.401       .  A
C449        H453   1.084       .  S
C450        C477   1.480       .  S
C450        C451   1.422       .  A
C451        H454   1.077       .  S
O455       Zr467   2.430       .  S
O455        C457   1.284       .  A
O456       Zr493   2.468   1_465  S
O456        C457   1.296       .  A
O458       Zr470   2.403       .  S
O458        C460   1.279       .  A
O459       Zr494   2.492   1_455  S
O459        C460   1.300       .  A
O461       Zr470   2.419       .  S
O461        C463   1.282       .  A
O462       Zr493   2.478   1_455  S
O462        C463   1.298       .  A
O464       Zr467   2.421       .  S
O464        C466   1.283       .  A
O465       Zr494   2.504   1_465  S
O465        C466   1.303       .  A
Zr467       O468   2.434       .  S
Zr467       O469   2.435       .  S
Zr467       O473   2.361   1_565  S
Zr467       O474   2.366   1_565  S
Zr467       O497   2.374   1_455  S
Zr467       O499   2.369   1_455  S
O468        H511   0.990       .  S
O469        H510   0.990       .  S
O469        H514   0.990       .  S
Zr470       O471   2.439       .  S
Zr470       O472   2.435       .  S
Zr470       O474   2.369       .  S
Zr470       O473   2.356       .  S
Zr470       O498   2.368   1_455  S
Zr470       O500   2.375   1_455  S
O471        H512   0.990       .  S
O471        H515   0.990       .  S
O472        H505   0.990       .  S
O473       Zr493   2.382   1_455  S
O474       Zr494   2.403   1_455  S
O474        H501   0.965       .  S
O475       Zr487   2.400       .  S
O475        C477   1.278       .  A
O476       Zr494   2.498   1_565  S
O476        C477   1.302       .  A
O478       Zr490   2.406       .  S
O478        C480   1.279       .  A
O479       Zr493   2.476       .  S
O479        C480   1.298       .  A
O481       Zr490   2.410       .  S
O481        C483   1.280       .  A
O482       Zr494   2.511       .  S
O482        C483   1.304       .  A
O484       Zr487   2.423       .  S
O484        C486   1.283       .  A
O485       Zr493   2.474   1_565  S
O485        C486   1.298       .  A
Zr487       O488   2.439       .  S
Zr487       O489   2.435       .  S
Zr487       O495   2.372   1_565  S
Zr487       O496   2.354   1_565  S
Zr487       O499   2.369       .  S
Zr487       O497   2.380       .  S
O488        H508   0.990       .  S
O488        H513   0.990       .  S
O489        H509   0.990       .  S
Zr490       O491   2.434       .  S
Zr490       O492   2.435       .  S
Zr490       O496   2.363       .  S
Zr490       O495   2.361       .  S
Zr490       O500   2.367       .  S
Zr490       O498   2.369       .  S
O491        H507   0.990       .  S
O492        H506   0.990       .  S
O492        H516   0.990       .  S
Zr493       O496   2.382       .  S
Zr493       O498   2.400       .  S
Zr493       O499   2.399   1_545  S
Zr494       O495   2.400       .  S
Zr494       O497   2.408   1_545  S
Zr494       O500   2.404       .  S
O495        H503   0.965       .  S
O498        H502   0.966       .  S
O499        H504   0.966       .  S
C517        C518   1.411       .  A
C517        C522   1.406       .  A
C517       Br524   1.928       .  S
C518        C519   1.402       .  A
C519        C520   1.394       .  A
C519       Br526   1.911       .  S
C520        C521   1.412       .  A
C520       Br525   1.923       .  S
C521        C522   1.418       .  A
C522       Br523   1.933       .  S
C527        C528   1.424       .  A
C527        C532   1.407       .  A
C527       Br534   1.925       .  S
C528        C529   1.414       .  A
C529        C530   1.414       .  A
C529       Br536   1.929       .  S
C530        C531   1.415       .  A
C530       Br535   1.928       .  S
C531        C532   1.400       .  A
C532       Br533   1.922       .  S
C537        C538   1.407       .  A
C537        C542   1.406       .  A
C537       Br544   1.929       .  S
C538        C539   1.417       .  A
C539        C540   1.403       .  A
C539       Br546   1.913       .  S
C540        C541   1.398       .  A
C540       Br545   1.934       .  S
C541        C542   1.412       .  A
C542       Br543   1.931       .  S
C547        C548   1.413       .  A
C547        C552   1.409       .  A
C547       Br554   1.928       .  S
C548        C549   1.405       .  A
C549        C550   1.406       .  A
C549       Br556   1.930       .  S
C550        C551   1.416       .  A
C550       Br555   1.932       .  S
C551        C552   1.408       .  A
C552       Br553   1.928       .  S
C557        C558   1.406       .  A
C557        C562   1.402       .  A
C557       Br564   1.927       .  S
C558        C559   1.408       .  A
C559        C560   1.406       .  A
C559       Br566   1.927       .  S
C560        C561   1.408       .  A
C560       Br565   1.928       .  S
C561        C562   1.409       .  A
C562       Br563   1.932       .  S
C567        C568   1.408       .  A
C567        C572   1.402       .  A
C567       Br574   1.931       .  S
C568        C569   1.407       .  A
C569        C570   1.406       .  A
C569       Br576   1.930       .  S
C570        C571   1.409       .  A
C570       Br575   1.929       .  S
C571        C572   1.410       .  A
C572       Br573   1.932       .  S
C577        C578   1.400       .  A
C577        C582   1.408       .  A
C577       Br584   1.916   1_565  S
C578        C579   1.400       .  A
C579        C580   1.409       .  A
C579       Br586   1.924       .  S
C580        C581   1.428       .  A
C580       Br585   1.932       .  S
C581        C582   1.418       .  A
C582       Br583   1.917   1_565  S
C587        C588   1.419       .  A
C587        C592   1.419       .  A
C587       Br594   1.928       .  S
C588        C589   1.432       .  A
C589        C590   1.400       .  A
C589       Br596   1.937       .  S
C590        C591   1.399       .  A
C590       Br595   1.940       .  S
C591        C592   1.414       .  A
C592       Br593   1.928       .  S
C597        C598   1.425       .  A
C597        C602   1.413       .  A
C597       Br604   1.934       .  S
C598        C599   1.439       .  A
C599        C600   1.406       .  A
C599       Br606   1.944       .  S
C600        C601   1.399       .  A
C600       Br605   1.939       .  S
C601        C602   1.408       .  A
C602       Br603   1.932       .  S
C607        C608   1.416       .  A
C607        C612   1.418       .  A
C607       Br614   1.926       .  S
C608        C609   1.410       .  A
C609        C610   1.399       .  A
C609       Br616   1.924       .  S
C610        C611   1.403       .  A
C610       Br615   1.930       .  S
C611        C612   1.411       .  A
C612       Br613   1.925       .  S
C617        C618   1.405       .  A
C617        C622   1.408       .  A
C617       Br624   1.920       .  S
C618        C619   1.404       .  A
C619        C620   1.398       .  A
C619       Br626   1.934       .  S
C620        C621   1.425       .  A
C620       Br625   1.941       .  S
C621        C622   1.421       .  A
C622       Br623   1.932       .  S
C627        C628   1.409       .  A
C627        C632   1.400       .  A
C627       Br634   1.929       .  S
C628        C629   1.412       .  A
C629        C630   1.411       .  A
C629       Br636   1.927       .  S
C630        C631   1.406       .  A
C630       Br635   1.924       .  S
C631        C632   1.409       .  A
C632       Br633   1.932       .  S
C637        C638   1.414       .  A
C637        C642   1.411       .  A
C637       Br644   1.929       .  S
C638        C639   1.412       .  A
C639        C640   1.413       .  A
C639       Br646   1.927       .  S
C640        C641   1.411       .  A
C640       Br645   1.929       .  S
C641        C642   1.411       .  A
C642       Br643   1.931       .  S
C647        C648   1.422       .  A
C647        C652   1.410       .  A
C647       Br654   1.934       .  S
C648        C649   1.414       .  A
C649        C650   1.394       .  A
C649       Br656   1.930       .  S
C650        C651   1.398       .  A
C650       Br655   1.901       .  S
C651        C652   1.408       .  A
C652       Br653   1.928       .  S
C657        C658   1.438       .  A
C657        C662   1.408       .  A
C657       Br664   1.942       .  S
C658        C659   1.422       .  A
C659        C660   1.403       .  A
C659       Br666   1.936       .  S
C660        C661   1.404       .  A
C660       Br665   1.932       .  S
C661        C662   1.400       .  A
C662       Br663   1.935       .  S
C667        C668   1.424       .  A
C667        C672   1.400       .  A
C667       Br674   1.927       .  S
C668        C669   1.441       .  A
C669        C670   1.421       .  A
C669       Br676   1.927       .  S
C670        C671   1.397       .  A
C670       Br675   1.921       .  S
C671        C672   1.407       .  A
C672       Br673   1.927       .  S
C677        C678   1.409       .  A
C677        C682   1.403       .  A
C677       Br684   1.929       .  S
C678        C679   1.406       .  A
C679        C680   1.406       .  A
C679       Br686   1.928       .  S
C680        C681   1.411       .  A
C680       Br685   1.926       .  S
C681        C682   1.408       .  A
C682       Br683   1.932       .  S
C687        C688   1.413       .  A
C687        C692   1.408       .  A
C687       Br694   1.929       .  S
C688        C689   1.411       .  A
C689        C690   1.399       .  A
C689       Br696   1.935       .  S
C690        C691   1.411       .  A
C690       Br695   1.937       .  S
C691        C692   1.404       .  A
C692       Br693   1.924       .  S
C697        C698   1.406       .  A
C697        C702   1.408       .  A
C697       Br704   1.929       .  S
C698        C699   1.417       .  A
C699        C700   1.408       .  A
C699       Br706   1.926       .  S
C700        C701   1.404       .  A
C700       Br705   1.930       .  S
C701        C702   1.415       .  A
C702       Br703   1.929       .  S
C707        C708   1.423       .  A
C707        C712   1.422       .  A
C707       Br714   1.928       .  S
C708        C709   1.429       .  A
C709        C710   1.403       .  A
C709       Br716   1.932       .  S
C710        C711   1.401       .  A
C710       Br715   1.941       .  S
C711        C712   1.410       .  A
C712       Br713   1.927       .  S
C717        C718   1.400       .  A
C717        C722   1.406       .  A
C717       Br724   1.917   1_565  S
C718        C719   1.404       .  A
C719        C720   1.418       .  A
C719       Br726   1.925       .  S
C720        C721   1.428       .  A
C720       Br725   1.931       .  S
C721        C722   1.418       .  A
C722       Br723   1.920   1_565  S
C727        C728   1.416       .  A
C727        C732   1.423       .  A
C727       Br734   1.926       .  S
C728        C729   1.410       .  A
C729        C730   1.401       .  A
C729       Br736   1.940       .  S
C730        C731   1.416       .  A
C730       Br735   1.927       .  S
C731        C732   1.417       .  A
C732       Br733   1.926       .  S
C737        C738   1.441       .  A
C737        C742   1.408       .  A
C737       Br744   1.943       .  S
C738        C739   1.423       .  A
C739        C740   1.420       .  A
C739       Br746   1.930       .  S
C740        C741   1.410       .  A
C740       Br745   1.929       .  S
C741        C742   1.400       .  A
C742       Br743   1.942       .  S
C747        C748   1.408       .  A
C747        C752   1.405       .  A
C747       Br754   1.930       .  S
C748        C749   1.411       .  A
C749        C750   1.410       .  A
C749       Br756   1.928       .  S
C750        C751   1.408       .  A
C750       Br755   1.924       .  S
C751        C752   1.413       .  A
C752       Br753   1.930       .  S
C757        C758   1.408       .  A
C757        C762   1.407       .  A
C757       Br764   1.927       .  S
C758        C759   1.410       .  A
C759        C760   1.399       .  A
C759       Br766   1.927       .  S
C760        C761   1.407       .  A
C760       Br765   1.933       .  S
C761        C762   1.409       .  A
C762       Br763   1.928       .  S
C767        C768   1.416       .  A
C767        C772   1.413       .  A
C767       Br774   1.929       .  S
C768        C769   1.413       .  A
C769        C770   1.401       .  A
C769       Br776   1.931       .  S
C770        C771   1.411       .  A
C770       Br775   1.934       .  S
C771        C772   1.407       .  A
C772       Br773   1.927       .  S
C777        C778   1.409       .  A
C777        C782   1.410       .  A
C777       Br784   1.927       .  S
C778        C779   1.411       .  A
C779        C780   1.399       .  A
C779       Br786   1.918       .  S
C780        C781   1.404       .  A
C780       Br785   1.934       .  S
C781        C782   1.411       .  A
C782       Br783   1.919       .  S
C787        C788   1.410       .  A
C787        C792   1.408       .  A
C787       Br794   1.927       .  S
C788        C789   1.408       .  A
C789        C790   1.400       .  A
C789       Br796   1.932       .  S
C790        C791   1.409       .  A
C790       Br795   1.930       .  S
C791        C792   1.407       .  A
C792       Br793   1.927       .  S
C797        C798   1.419       .  A
C797        C802   1.404       .  A
C797       Br804   1.931       .  S
C798        C799   1.412       .  A
C799        C800   1.408       .  A
C799       Br806   1.932       .  S
C800        C801   1.412       .  A
C800       Br805   1.932       .  S
C801        C802   1.405       .  A
C802       Br803   1.935       .  S
C807        C808   1.406       .  A
C807        C812   1.408       .  A
C807       Br814   1.941       .  S
C808        C809   1.406       .  A
C809        C810   1.409       .  A
C809       Br816   1.935       .  S
C810        C811   1.426       .  A
C810       Br815   1.935       .  S
C811        C812   1.433       .  A
C812       Br813   1.939       .  S
C817        C818   1.406       .  A
C817        C822   1.410       .  A
C817       Br824   1.932       .  S
C818        C819   1.407       .  A
C819        C820   1.406       .  A
C819       Br826   1.934       .  S
C820        C821   1.418       .  A
C820       Br825   1.931       .  S
C821        C822   1.417       .  A
C822       Br823   1.925       .  S
C827        C828   1.405       .  A
C827        C832   1.401       .  A
C827       Br834   1.942       .  S
C828        C829   1.407       .  A
C829        C830   1.408       .  A
C829       Br836   1.935       .  S
C830        C831   1.424       .  A
C830       Br835   1.934       .  S
C831        C832   1.427       .  A
C832       Br833   1.934       .  S
