geometry optimzed in LAMMPS
_audit_creation_date              2020-12-01 
_audit_creation_method            'lammps2cif' 
_symmetry_space_group_name_H-M    'P1' 
_symmetry_Int_Tables_number       1 
_symmetry_cell_setting            triclinic 
loop_ 
_symmetry_equiv_pos_as_xyz 
  x,y,z 
_cell_length_a                    92.71877527 
_cell_length_b                    92.20710371552755 
_cell_length_c                    47.59934720196686 
_cell_angle_alpha                 89.48957104397081 
_cell_angle_beta                  90.3837979423999 
_cell_angle_gamma                 126.3914216817208 
loop_ 
_atom_site_label 
_atom_site_type_symbol 
_atom_site_fract_x 
_atom_site_fract_y 
_atom_site_fract_z 
_atom_site_charge 
N1          N  0.11220738  0.55368815  0.30136507    -0.25800
N2          N  0.09689239  0.54644910  0.31478910    -0.33700
C3          C  0.09996636  0.54777478  0.34264303     0.02500
C4          C  0.11804329  0.55624378  0.34677008     0.08500
C5          C  0.12544666  0.55982109  0.32030433    -0.04600
H6          H  0.08976148  0.54272170  0.35861996     0.09200
H7          H  0.13933823  0.56611099  0.31515206     0.10400
Cu8        Cu  0.07248101  0.53470226  0.29462308     0.44200
Cu9        Cu  0.11420934  0.55392955  0.25799722     0.42000
Cu10       Cu  0.07267381  0.53367446  0.21869368     0.43900
N11         N  0.04979920  0.52427835  0.27009228    -0.33200
N12         N  0.04982663  0.52409930  0.24231745    -0.27500
C13         C  0.03307063  0.51664975  0.23295388    -0.03600
C14         C  0.02200409  0.51188571  0.25597415     0.08600
C15         C  0.03306425  0.51691473  0.27913664     0.02400
H16         H  0.02923741  0.51477343  0.21102837     0.10100
H17         H  0.02926765  0.51539926  0.30101750     0.09200
N18         N  0.09710931  0.54295917  0.20051740    -0.34700
N19         N  0.11221446  0.55039006  0.21483477    -0.26800
C20         C  0.12537776  0.55441645  0.19709339    -0.02100
C21         C  0.11816076  0.54923777  0.17047173     0.06500
C22         C  0.10027872  0.54206527  0.17326618     0.04600
H23         H  0.13909619  0.56047418  0.20320981     0.09700
H24         H  0.09025877  0.53645389  0.15679720     0.08600
N25         N  0.16500171  0.56476004  0.06548232    -0.25800
N26         N  0.14999943  0.55901716  0.05195197    -0.33700
C27         C  0.13680572  0.55311573  0.07074050     0.02500
C28         C  0.14386821  0.55524363  0.09725771     0.08500
C29         C  0.16174352  0.56266704  0.09329762    -0.04600
H30         H  0.12329400  0.54837208  0.06550163     0.09200
H31         H  0.17179259  0.56695480  0.10938534     0.10400
Cu32       Cu  0.14852376  0.56101739  0.50880318     0.44200
Cu33       Cu  0.18954692  0.57704038  0.04557022     0.42000
Cu34       Cu  0.19063547  0.58812943  0.47180628     0.43900
N35         N  0.15051161  0.56596308  0.46593926    -0.33200
N36         N  0.16595014  0.57608341  0.45243093    -0.27500
C37         C  0.16270839  0.57653846  0.42496619    -0.03600
C38         C  0.14439708  0.56625161  0.42118838     0.08600
C39         C  0.13702039  0.55972033  0.44745307     0.02400
H40         H  0.17292381  0.58368481  0.40896235     0.10100
H41         H  0.12293793  0.55101681  0.45275365     0.09200
N42         N  0.21318553  0.59595116  0.49492385    -0.34700
N43         N  0.21265558  0.59127796  0.02134538    -0.26800
C44         C  0.22927710  0.59732241  0.02938634    -0.02100
C45         C  0.24084421  0.60647590  0.50714789     0.06500
C46         C  0.23015284  0.60536874  0.48555262     0.04600
H47         H  0.23275121  0.59523590  0.05004455     0.09700
H48         H  0.23422965  0.61048621  0.46438786     0.08600
N49         N  0.91309266  0.46437304  0.30092819    -0.25800
N50         N  0.92799670  0.47015391  0.31480674    -0.33700
C51         C  0.92461675  0.46852803  0.34258097     0.02500
C52         C  0.90677127  0.46139412  0.34611370     0.08500
C53         C  0.89985057  0.45891790  0.31941048    -0.04600
H54         H  0.93446359  0.47250512  0.35889272     0.09200
H55         H  0.88627945  0.45381979  0.31377691     0.10400
Cu56       Cu  0.95229812  0.48061119  0.29504518     0.44200
Cu57       Cu  0.91150949  0.46487098  0.25757037     0.42000
Cu58       Cu  0.95223023  0.48289214  0.21850399     0.43900
N59         N  0.97485697  0.49090097  0.27024908    -0.33200
N60         N  0.97484271  0.49164113  0.24247412    -0.27500
C61         C  0.99155736  0.49911157  0.23308058    -0.03600
C62         C  0.00260821  0.50331285  0.25602880     0.08600
C63         C  0.99157647  0.49792480  0.27922399     0.02400
H64         H  0.99538689  0.50144428  0.21115940     0.10100
H65         H  0.99540286  0.49906284  0.30106192     0.09200
N66         N  0.92790608  0.47382007  0.19981097    -0.34700
N67         N  0.91304578  0.46725070  0.21421651    -0.26800
C68         C  0.89969281  0.46261913  0.19627278    -0.02100
C69         C  0.90651021  0.46646705  0.16937909     0.06500
C70         C  0.92438736  0.47353293  0.17224678     0.04600
H71         H  0.88605794  0.45684986  0.20239399     0.09700
H72         H  0.93410614  0.47808779  0.15559761     0.08600
N73         N  0.85915738  0.45099723  0.06388610    -0.25800
N74         N  0.87323814  0.45412764  0.05055292    -0.33700
C75         C  0.88597827  0.45818323  0.06940483     0.02500
C76         C  0.87960600  0.45757832  0.09578764     0.08500
C77         C  0.86259562  0.45297999  0.09168412    -0.04600
H78         H  0.89886046  0.46123619  0.06424548     0.09200
H79         H  0.85334339  0.45105179  0.10766629     0.10400
Cu80       Cu  0.87466729  0.45268515  0.50749789     0.44200
Cu81       Cu  0.83568030  0.44338918  0.04353512     0.42000
Cu82       Cu  0.83412116  0.43535641  0.46847037     0.43900
N83         N  0.87317768  0.45066563  0.46416562    -0.33200
N84         N  0.85832250  0.44430347  0.44972157    -0.27500
C85         C  0.86184663  0.44497895  0.42214700    -0.03600
C86         C  0.87972201  0.45206591  0.41932380     0.08600
C87         C  0.88653552  0.45554083  0.44625264     0.02400
H88         H  0.85213924  0.44069384  0.40545814     0.10100
H89         H  0.90016960  0.46123335  0.45241345     0.09200
N90         N  0.81211840  0.42890133  0.49183274    -0.34700
N91         N  0.81290383  0.43267055  0.01873951    -0.26800
C92         C  0.79655801  0.42722871  0.02722989    -0.02100
C93         C  0.78486763  0.41932782  0.50476474     0.06500
C94         C  0.79517615  0.42054491  0.48266096     0.04600
H95         H  0.79327873  0.42838398  0.04847616     0.09700
H96         H  0.79071869  0.41576317  0.46145835     0.08600
N97         N  0.54524678  0.10644321  0.20081772    -0.25800
N98         N  0.54421908  0.09352245  0.18684444    -0.33700
C99         C  0.54636152  0.09757988  0.15927643     0.02500
C100        C  0.54885166  0.11379296  0.15591427     0.08500
C101        C  0.54808279  0.11909626  0.18252169    -0.04600
H102        H  0.54623101  0.08939118  0.14299137     0.09200
H103        H  0.54963340  0.13128042  0.18823118     0.10400
Cu104      Cu  0.53999544  0.07103338  0.20587279     0.44200
Cu105      Cu  0.54330096  0.10651810  0.24411900     0.42000
Cu106      Cu  0.53674626  0.06886922  0.28210251     0.43900
N107        N  0.53407058  0.04920674  0.22958640    -0.33200
N108        N  0.53277866  0.04833164  0.25729773    -0.27500
C109        C  0.52766143  0.03197687  0.26590575    -0.03600
C110        C  0.52561581  0.02212196  0.24248922     0.08600
C111        C  0.52984202  0.03347329  0.21984296     0.02400
H112        H  0.52515059  0.02745192  0.28756543     0.10100
H113        H  0.52936301  0.03037692  0.19784775     0.09200
N114        N  0.53996709  0.09072595  0.30155415    -0.34700
N115        N  0.54219458  0.10436993  0.28751376    -0.26800
C116        C  0.54382247  0.11627409  0.30585145    -0.02100
C117        C  0.54253540  0.10978292  0.33261957     0.06500
C118        C  0.54011778  0.09359930  0.32929026     0.04600
H119        H  0.54588720  0.12875118  0.30007981     0.09700
H120        H  0.53863476  0.08463020  0.34569006     0.08600
N121        N  0.56712448  0.16092388  0.04884602    -0.25800
N122        N  0.55745365  0.14507800  0.03630060    -0.33700
C123        C  0.55167773  0.13201364  0.05564991     0.02500
C124        C  0.55802282  0.14009044  0.08148604     0.08500
C125        C  0.56775450  0.15837921  0.07657543    -0.04600
H126        H  0.54340817  0.11774604  0.05121858     0.09200
H127        H  0.57461585  0.16903185  0.09196586     0.10400
Cu128      Cu  0.55232938  0.14195284  0.49352897     0.44200
Cu129      Cu  0.57820227  0.18511212  0.02774402     0.42000
Cu130      Cu  0.56591461  0.18189549  0.45400263     0.43900
N131        N  0.55039183  0.14247495  0.45028518    -0.33200
N132        N  0.55531605  0.15701821  0.43568779    -0.27500
C133        C  0.55368141  0.15317817  0.40810500    -0.03600
C134        C  0.54740990  0.13541658  0.40544767     0.08600
C135        C  0.54547551  0.12901594  0.43247565     0.02400
H136        H  0.55743337  0.16278126  0.39131164     0.10100
H137        H  0.54147218  0.11580947  0.43875941     0.09200
N138        N  0.57981381  0.20579600  0.47667039    -0.34700
N139        N  0.58517966  0.20702290  0.00308301    -0.26800
C140        C  0.59522329  0.22441303  0.01083904    -0.02100
C141        C  0.59613128  0.23461343  0.48825894     0.06500
C142        C  0.58606137  0.22235668  0.46718115     0.04600
H143        H  0.60133949  0.22925944  0.03128173     0.09700
H144        H  0.58400424  0.22533862  0.44611026     0.08600
N145        N  0.48512913  0.91348686  0.28191195    -0.25800
N146        N  0.48962989  0.92780937  0.29634975    -0.33700
C147        C  0.48766886  0.92377369  0.32393826     0.02500
C148        C  0.48166959  0.90610544  0.32681111     0.08500
C149        C  0.48018468  0.89993830  0.29989042    -0.04600
H150        H  0.49046571  0.93302800  0.34058610     0.09200
H151        H  0.47588831  0.88664931  0.29378076     0.10400
Cu152      Cu  0.49857955  0.95220412  0.27771388     0.44200
Cu153      Cu  0.48612568  0.91315105  0.23850116     0.42000
Cu154      Cu  0.50295651  0.95476231  0.20134181     0.43900
N155        N  0.50823299  0.97531863  0.25427800    -0.33200
N156        N  0.50992075  0.97631644  0.22661316    -0.27500
C157        C  0.51653661  0.99315804  0.21818621    -0.03600
C158        C  0.51912694  0.00319549  0.24166904     0.08600
C159        C  0.51373159  0.99147306  0.26416179     0.02400
H160        H  0.51912433  0.99768766  0.19655533     0.10100
H161        H  0.51365795  0.99439232  0.28610308     0.09200
N162        N  0.49466311  0.93097600  0.18145935    -0.34700
N163        N  0.48847865  0.91580844  0.19521547    -0.26800
C164        C  0.48411147  0.90286235  0.17668648    -0.02100
C165        C  0.48773481  0.91024863  0.15008741     0.06500
C166        C  0.49439181  0.92806314  0.15370788     0.04600
H167        H  0.47865040  0.88909716  0.18221631     0.09700
H168        H  0.49863699  0.93811188  0.13748840     0.11800
N169        N  0.46041132  0.85760412  0.43319153    -0.25800
N170        N  0.46974294  0.87329408  0.44618800    -0.33700
C171        C  0.47623593  0.88659311  0.42704624     0.02500
C172        C  0.47071109  0.87883988  0.40085056     0.08500
C173        C  0.46071514  0.86047852  0.40535582    -0.04600
H174        H  0.48435304  0.90081316  0.43188524     0.09200
H175        H  0.45420085  0.85000478  0.38966357     0.10400
Cu176      Cu  0.47315174  0.87578395  0.48930851     0.44200
Cu177      Cu  0.44824811  0.83324102  0.45426534     0.42000
Cu178      Cu  0.45699222  0.83527824  0.02966153     0.43900
N179        N  0.47451788  0.87519094  0.03269292    -0.33200
N180        N  0.46865481  0.86047620  0.04757726    -0.27500
C181        C  0.47072214  0.86460081  0.07508311    -0.03600
C182        C  0.47824067  0.88271909  0.07737612     0.08600
C183        C  0.48046525  0.88903696  0.05023327     0.02400
H184        H  0.46669065  0.85505391  0.09206760     0.10100
H185        H  0.48565462  0.90257114  0.04367531     0.09200
N186        N  0.44334775  0.81165365  0.00630268    -0.34700
N187        N  0.43952734  0.81093451  0.47924644    -0.26800
C188        C  0.42971765  0.79369595  0.47079563    -0.02100
C189        C  0.42742062  0.78303764  0.49348414     0.06500
C190        C  0.43632848  0.79485940  0.01560928     0.04600
H191        H  0.42486170  0.78932926  0.44961748     0.09700
H192        H  0.43730893  0.79145642  0.03701761     0.08600
N193        N  0.38427327  0.70481459  0.48567835    -0.25800
N194        N  0.37035567  0.70391115  0.47606468    -0.33700
C195        C  0.37537820  0.72067922  0.47095999     0.02500
C196        C  0.39321663  0.73272109  0.47817946     0.08500
C197        C  0.39848441  0.72222890  0.48740557    -0.04600
H198        H  0.36650696  0.72389330  0.46359730     0.09200
H199        H  0.41163358  0.72686773  0.49480975     0.10400
Cu200      Cu  0.34471278  0.68013051  0.47389602     0.44200
Cu201      Cu  0.38292303  0.68216208  0.49616478     0.42000
Cu202      Cu  0.33825500  0.64057167  0.50522791     0.43900
N203        N  0.31982709  0.65617399  0.48160721    -0.33200
N204        N  0.31740516  0.64206549  0.49431471    -0.27500
C205        C  0.29974372  0.62947532  0.49839847    -0.03600
C206        C  0.29068108  0.63599791  0.48761505     0.08600
C207        C  0.30380575  0.65286490  0.47697320     0.02400
H208        H  0.29396568  0.61652768  0.50839750     0.10100
H209        H  0.30190344  0.66230249  0.46743035     0.09200
N210        N  0.36162915  0.64240199  0.50949214    -0.34700
N211        N  0.37781056  0.65743535  0.50496532    -0.26800
C212        C  0.38987691  0.65382587  0.50638979    -0.02100
C213        C  0.38089214  0.63569346  0.51240768     0.06500
C214        C  0.36303739  0.62888380  0.51447406     0.04600
H215        H  0.40412653  0.66366936  0.50307001     0.09700
H216        H  0.35182806  0.61499487  0.51802767     0.08600
N217        N  0.46229298  0.55176656  0.29432309    -0.25800
N218        N  0.46902117  0.54469843  0.30869728    -0.33700
C219        C  0.46854572  0.54751190  0.33627487     0.02500
C220        C  0.46118363  0.55676016  0.33917319     0.08500
C221        C  0.45736099  0.55925926  0.31230198    -0.04600
H222        H  0.47326314  0.54320908  0.35288105     0.09200
H223        H  0.45151608  0.56605144  0.30621820     0.10400
Cu224      Cu  0.47865346  0.53169351  0.29005320     0.44200
Cu225      Cu  0.46021430  0.55111641  0.25096466     0.42000
Cu226      Cu  0.47512955  0.52816010  0.21395016     0.43900
N227        N  0.48737986  0.51946281  0.26627579    -0.33200
N228        N  0.48601646  0.51810766  0.23858988    -0.27500
C229        C  0.49309336  0.50976329  0.22966888    -0.03600
C230        C  0.49921251  0.50567800  0.25280930     0.08600
C231        C  0.49535540  0.51200680  0.27567117     0.02400
H232        H  0.49385217  0.50701482  0.20786861     0.10100
H233        H  0.49825103  0.51138394  0.29750951     0.09200
N234        N  0.46498420  0.54052645  0.19400115    -0.34700
N235        N  0.45962393  0.54897998  0.20766137    -0.26800
C236        C  0.45437385  0.55603415  0.18899475    -0.02100
C237        C  0.45653468  0.55179130  0.16240321     0.06500
C238        C  0.46327640  0.54198119  0.16619583     0.04600
H239        H  0.44960481  0.56387476  0.19441115     0.09700
H240        H  0.46693547  0.53655614  0.15001985     0.08600
N241        N  0.43867554  0.57917609  0.05733122    -0.25800
N242        N  0.44729803  0.57403000  0.04365253    -0.33700
C243        C  0.45289847  0.56719649  0.06209453     0.02500
C244        C  0.44753961  0.56811274  0.08855623     0.08500
C245        C  0.43858868  0.57576592  0.08492124    -0.04600
H246        H  0.46021109  0.56187303  0.05658005     0.09200
H247        H  0.43243061  0.57860268  0.10105465     0.10400
Cu248      Cu  0.45073225  0.57605353  0.50052068     0.44200
Cu249      Cu  0.42749479  0.59062634  0.03770321     0.42000
Cu250      Cu  0.43428409  0.59735775  0.46211249     0.43900
N251        N  0.45079852  0.57757063  0.45711244    -0.33200
N252        N  0.44468036  0.58528131  0.44290691    -0.27500
C253        C  0.44577046  0.58320276  0.41522083    -0.03600
C254        C  0.45293267  0.57377946  0.41208216     0.08600
C255        C  0.45597080  0.57040212  0.43892097     0.02400
H256        H  0.44137945  0.58789972  0.39872711     0.10100
H257        H  0.46119614  0.56299413  0.44484189     0.09200
N258        N  0.42276036  0.60668593  0.48609560    -0.34700
N259        N  0.41935896  0.60339879  0.01323992    -0.26800
C260        C  0.41118588  0.61070141  0.02196860    -0.02100
C261        C  0.40956219  0.61910397  0.49924058     0.06500
C262        C  0.41707603  0.61633892  0.47691088     0.04600
H263        H  0.40735086  0.61050761  0.04345201     0.09700
H264        H  0.41820389  0.62088702  0.45547211     0.08600
N265        N  0.54815167  0.45372974  0.21056483    -0.25800
N266        N  0.54081821  0.46016913  0.19616652    -0.33700
C267        C  0.54173901  0.45769265  0.16855237     0.02500
C268        C  0.55002400  0.44931397  0.16568724     0.08500
C269        C  0.55391957  0.44700014  0.19262497    -0.04600
H270        H  0.53683226  0.46175619  0.15188441     0.09200
H271        H  0.56051971  0.44096720  0.19877506     0.10400
Cu272      Cu  0.53012083  0.47214133  0.21520521     0.44200
Cu273      Cu  0.55018582  0.45448181  0.25391351     0.42000
Cu274      Cu  0.53294634  0.47503689  0.29174014     0.43900
N275        N  0.52053793  0.48350789  0.23938758    -0.33200
N276        N  0.52163371  0.48459880  0.26712026    -0.27500
C277        C  0.51424309  0.49262309  0.27613207    -0.03600
C278        C  0.50818265  0.49677318  0.25299710     0.08600
C279        C  0.51239701  0.49080943  0.23007387     0.02400
H280        H  0.51333740  0.49520343  0.29792275     0.10100
H281        H  0.50975365  0.49170759  0.20817925     0.09200
N282        N  0.54456233  0.46403048  0.31115286    -0.34700
N283        N  0.55084010  0.45651881  0.29721753    -0.26800
C284        C  0.55736301  0.45059040  0.31561630    -0.02100
C285        C  0.55505493  0.45458574  0.34229229     0.06500
C286        C  0.54692341  0.46307633  0.33885703     0.04600
H287        H  0.56327658  0.44384632  0.30994955     0.09700
H288        H  0.54296571  0.46813240  0.35520397     0.08600
N289        N  0.57048942  0.42435518  0.06150874    -0.25800
N290        N  0.56673283  0.43427149  0.04773977    -0.33700
C291        C  0.56155490  0.44133106  0.06614615     0.02500
C292        C  0.56207557  0.43559217  0.09271647     0.08500
C293        C  0.56779846  0.42487405  0.08917061    -0.04600
H294        H  0.55776291  0.45004804  0.06055237     0.09200
H295        H  0.56997055  0.41809211  0.10540239     0.10400
Cu296      Cu  0.56879358  0.43793467  0.00458274     0.44200
Cu297      Cu  0.57977963  0.41125507  0.04176801     0.42000
Cu298      Cu  0.58925667  0.42099686  0.46683583     0.43900
N299        N  0.57096825  0.43896985  0.46122837    -0.33200
N300        N  0.57864940  0.43288522  0.44730622    -0.27500
C301        C  0.57753855  0.43505563  0.41958002    -0.03600
C302        C  0.56877277  0.44289441  0.41609706     0.08600
C303        C  0.56476965  0.44520384  0.44277947     0.02400
H304        H  0.58245972  0.43094919  0.40325950     0.10100
H305        H  0.55763762  0.45071919  0.44839734     0.09200
N306        N  0.59628889  0.40717156  0.49061897    -0.34700
N307        N  0.59201034  0.40272079  0.01736651    -0.26800
C308        C  0.59788963  0.39310627  0.02591464    -0.02100
C309        C  0.60673821  0.39196983  0.00377062     0.06500
C310        C  0.60540549  0.40095826  0.48167592     0.04600
H311        H  0.59633118  0.38782026  0.04697066     0.09700
H312        H  0.61056335  0.40275471  0.46064280     0.08600
N313        N  0.64071868  0.31310359  0.49342839    -0.25800
N314        N  0.65545934  0.31407662  0.49621547    -0.33700
C315        C  0.65093110  0.29731562  0.49895370     0.02500
C316        C  0.63249393  0.28522562  0.49723902     0.08500
C317        C  0.62641146  0.29568066  0.49371292    -0.04600
H318        H  0.66038626  0.29415177  0.50167215     0.09200
H319        H  0.61263523  0.29103006  0.49223144     0.10400
Cu320      Cu  0.68099011  0.33823750  0.49519753     0.44200
Cu321      Cu  0.64105666  0.33573191  0.49126646     0.42000
Cu322      Cu  0.68499109  0.37981550  0.49212645     0.43900
N323        N  0.70529429  0.36366104  0.49322888    -0.33200
N324        N  0.70694145  0.37892934  0.49345024    -0.27500
C325        C  0.72451304  0.39282818  0.49315583    -0.03600
C326        C  0.73428029  0.38588442  0.49220984     0.08600
C327        C  0.72167674  0.36741245  0.49205929     0.02400
H328        H  0.72975505  0.40689674  0.49277394     0.10100
H329        H  0.72423011  0.35739162  0.49144578     0.09200
N330        N  0.66054059  0.37614835  0.49032565    -0.34700
N331        N  0.64475649  0.36019247  0.49106187    -0.26800
C332        C  0.63174449  0.36250354  0.49123900    -0.02100
C333        C  0.63967897  0.38076402  0.49018882     0.06500
C334        C  0.65791231  0.38902769  0.48936559     0.04600
H335        H  0.61754987  0.35165765  0.49168431     0.09700
H336        H  0.66849826  0.40335187  0.48876152     0.08600
C337        C  0.63071900  0.38965757  0.48973391    -0.15000
C338        C  0.61540566  0.38280482  0.50378081    -0.30100
H339        H  0.63728904  0.40252284  0.47889586     0.14100
H340        H  0.60989842  0.37101940  0.01702709     0.14600
C341        C  0.55411285  0.44428259  0.14002651    -0.11800
C342        C  0.55773993  0.44014664  0.11863048    -0.13400
C343        C  0.56407867  0.44709908  0.39004688    -0.11800
C344        C  0.55998332  0.45056355  0.36828082    -0.13400
C345        C  0.45584882  0.56789184  0.38629014    -0.11800
C346        C  0.45828629  0.56278921  0.36482405    -0.13400
C347        C  0.45056414  0.56216111  0.11448531    -0.11800
C348        C  0.45322598  0.55726128  0.13622086    -0.13400
C349        C  0.40228934  0.62962459  0.49850934    -0.15000
C350        C  0.38844403  0.62543825  0.51457540    -0.30100
H351        H  0.40772689  0.64038318  0.48300297     0.14100
H352        H  0.38173258  0.61351870  0.02804108     0.14600
C353        C  0.41748994  0.76327726  0.49436136    -0.15000
C354        C  0.40383848  0.75251626  0.47670901    -0.30100
H355        H  0.42080411  0.75745889  0.01090861     0.14100
H356        H  0.39953699  0.75830112  0.46193116     0.14600
C357        C  0.47451495  0.88808250  0.37441636    -0.11800
C358        C  0.47777873  0.89618938  0.35257087    -0.13400
C359        C  0.48480455  0.90102388  0.12409410    -0.11800
C360        C  0.48196433  0.89275165  0.10274509    -0.13400
C361        C  0.62188202  0.26545694  0.49976645    -0.15000
C362        C  0.60612853  0.25436000  0.48654098    -0.30100
H363        H  0.62766366  0.25984373  0.01159009     0.14100
H364        H  0.60107644  0.25985638  0.47270251     0.14600
C365        C  0.54524483  0.12607382  0.37992188    -0.11800
C366        C  0.54383394  0.11840638  0.35852133    -0.13400
C367        C  0.55485328  0.13118476  0.10804586    -0.11800
C368        C  0.55208654  0.12338160  0.13004331    -0.13400
C369        C  0.76540276  0.41067075  0.50506349    -0.15000
C370        C  0.75387345  0.39562958  0.49039023    -0.30100
H371        H  0.76034492  0.41574198  0.01929217     0.14100
H372        H  0.75884810  0.38942037  0.47855307     0.14600
C373        C  0.89742672  0.45804094  0.37213102    -0.11800
C374        C  0.88934340  0.45528075  0.39366431    -0.13400
C375        C  0.89686274  0.46344553  0.14368298    -0.11800
C376        C  0.88880576  0.46078068  0.12203860    -0.13400
C377        C  0.26019707  0.61476942  0.50664949    -0.15000
C378        C  0.27126279  0.62737607  0.48763356    -0.30100
H379        H  0.26543643  0.61078550  0.02290031     0.14100
H380        H  0.26616425  0.63222968  0.47258962     0.14600
C381        C  0.13496226  0.56277755  0.39514928    -0.11800
C382        C  0.12717307  0.55984138  0.37315762    -0.13400
C383        C  0.12735519  0.55090627  0.14506708    -0.11800
C384        C  0.13498028  0.55261297  0.12348103    -0.13400
N385        N  0.11220763  0.55360929  0.80132060    -0.25800
N386        N  0.09687971  0.54636891  0.81470492    -0.33700
C387        C  0.09992413  0.54769583  0.84256640     0.02500
C388        C  0.11799618  0.55616667  0.84674090     0.08500
C389        C  0.12542714  0.55974423  0.82029711    -0.04600
H390        H  0.08970628  0.54265436  0.85851258     0.09200
H391        H  0.13933077  0.56605005  0.81518376     0.10400
Cu392      Cu  0.07249300  0.53464430  0.79449340     0.44200
Cu393      Cu  0.11425480  0.55388650  0.75795416     0.42000
Cu394      Cu  0.07275032  0.53376627  0.71858206     0.43900
N395        N  0.04983010  0.52425763  0.76995139    -0.33200
N396        N  0.04987333  0.52412716  0.74217609    -0.27500
C397        C  0.03311926  0.51668756  0.73280487    -0.03600
C398        C  0.02204220  0.51188524  0.75582676     0.08600
C399        C  0.03309181  0.51687778  0.77899346     0.02400
H400        H  0.02929785  0.51485203  0.71088522     0.10100
H401        H  0.02928843  0.51532898  0.80086651     0.09200
N402        N  0.09719616  0.54305031  0.70043312    -0.34700
N403        N  0.11228551  0.55042139  0.71477238    -0.26800
C404        C  0.12544509  0.55442337  0.69704122    -0.02100
C405        C  0.11824339  0.54929258  0.67040340     0.06500
C406        C  0.10037305  0.54217283  0.67317804     0.04600
H407        H  0.13914877  0.56041745  0.70318014     0.09700
H408        H  0.09036509  0.53659240  0.65670347     0.08600
N409        N  0.16503689  0.56457447  0.56546041    -0.25800
N410        N  0.15004433  0.55885194  0.55191554    -0.33700
C411        C  0.13685333  0.55298188  0.57069603     0.02500
C412        C  0.14390508  0.55510825  0.59722215     0.08500
C413        C  0.16177273  0.56249739  0.59327326    -0.04600
H414        H  0.12334917  0.54827463  0.56544364     0.09200
H415        H  0.17182234  0.56679371  0.60937382     0.10400
Cu416      Cu  0.14845493  0.56115548  0.00884556     0.44200
Cu417      Cu  0.18959274  0.57687148  0.54557827     0.42000
Cu418      Cu  0.19057024  0.58823782  0.97180115     0.43900
N419        N  0.15043777  0.56607190  0.96597972    -0.33200
N420        N  0.16587347  0.57618470  0.95246136    -0.27500
C421        C  0.16262508  0.57660412  0.92498942    -0.03600
C422        C  0.14431289  0.56630118  0.92121954     0.08600
C423        C  0.13694149  0.55979748  0.94749344     0.02400
H424        H  0.17283288  0.58372475  0.90897882     0.10100
H425        H  0.12285971  0.55108319  0.95279860     0.09200
N426        N  0.21312252  0.59600132  0.99486038    -0.34700
N427        N  0.21271815  0.59121281  0.52139995    -0.26800
C428        C  0.22935356  0.59731850  0.52947187    -0.02100
C429        C  0.24076181  0.60642739  0.00703912     0.06500
C430        C  0.23007854  0.60535072  0.98545680     0.04600
H431        H  0.23282815  0.59523072  0.55011241     0.09700
H432        H  0.23415505  0.61045046  0.96427474     0.08600
N433        N  0.91318804  0.46450034  0.80091393    -0.25800
N434        N  0.92808848  0.47027185  0.81479374    -0.33700
C435        C  0.92470004  0.46863245  0.84256688     0.02500
C436        C  0.90685324  0.46150011  0.84609140     0.08500
C437        C  0.89994035  0.45903815  0.81938679    -0.04600
H438        H  0.93454345  0.47259617  0.85888873     0.09200
H439        H  0.88637626  0.45394350  0.81374817     0.10400
Cu440      Cu  0.95237948  0.48071375  0.79499515     0.44200
Cu441      Cu  0.91160924  0.46500437  0.75756856     0.42000
Cu442      Cu  0.95225438  0.48287066  0.71840198     0.43900
N443        N  0.97490969  0.49094789  0.77014347    -0.33200
N444        N  0.97487607  0.49164213  0.74236448    -0.27500
C445        C  0.99158311  0.49908968  0.73295221    -0.03600
C446        C  0.00264792  0.50332059  0.75589189     0.08600
C447        C  0.99163289  0.49797568  0.77909847     0.02400
H448        H  0.99539666  0.50138425  0.71102836     0.10100
H449        H  0.99547538  0.49914890  0.80094116     0.09200
N450        N  0.92792582  0.47383809  0.69976834    -0.34700
N451        N  0.91309604  0.46733484  0.71422026    -0.26800
C452        C  0.89973266  0.46273109  0.69632216    -0.02100
C453        C  0.90651015  0.46652719  0.66940758     0.06500
C454        C  0.92437441  0.47353315  0.67221623     0.04600
H455        H  0.88611652  0.45701735  0.70249041     0.09700
H456        H  0.93406791  0.47804231  0.65552758     0.08600
N457        N  0.85914693  0.45107256  0.56393159    -0.25800
N458        N  0.87323322  0.45419995  0.55061989    -0.33700
C459        C  0.88596759  0.45826461  0.56948913     0.02500
C460        C  0.87958617  0.45766792  0.59585861     0.08500
C461        C  0.86257612  0.45306553  0.59173258    -0.04600
H462        H  0.89884983  0.46131232  0.56435151     0.09200
H463        H  0.85331755  0.45113741  0.60769901     0.10400
Cu464      Cu  0.87464897  0.45263850  0.00742240     0.44200
Cu465      Cu  0.83567033  0.44345632  0.54356810     0.42000
Cu466      Cu  0.83408399  0.43521732  0.96841166     0.43900
N467        N  0.87316626  0.45064373  0.96409010    -0.33200
N468        N  0.85830332  0.44423934  0.94964261    -0.27500
C469        C  0.86183973  0.44493775  0.92206651    -0.03600
C470        C  0.87973277  0.45208571  0.91925207     0.08600
C471        C  0.88654105  0.45557097  0.94618288     0.02400
H472        H  0.85213143  0.44062629  0.90537633     0.10100
H473        H  0.90018294  0.46130199  0.95235022     0.09200
N474        N  0.81209693  0.42876101  0.99182656    -0.34700
N475        N  0.81290612  0.43277650  0.51875743    -0.26800
C476        C  0.79655591  0.42733176  0.52722943    -0.02100
C477        C  0.78485285  0.41919042  0.00479342     0.06500
C478        C  0.79514528  0.42038319  0.98268181     0.04600
H479        H  0.79326099  0.42845814  0.54847913     0.09700
H480        H  0.79067578  0.41558026  0.96150763     0.08600
N481        N  0.54514853  0.10642833  0.70071700    -0.25800
N482        N  0.54396970  0.09343755  0.68670497    -0.33700
C483        C  0.54610028  0.09749866  0.65913699     0.02500
C484        C  0.54874080  0.11378745  0.65581648     0.08500
C485        C  0.54807155  0.11912985  0.68244713    -0.04600
H486        H  0.54587364  0.08926983  0.64283066     0.09200
H487        H  0.54976082  0.13137988  0.68819207     0.10400
Cu488      Cu  0.53961422  0.07087239  0.70568226     0.44200
Cu489      Cu  0.54332532  0.10655254  0.74403766     0.42000
Cu490      Cu  0.53664238  0.06882400  0.78193374     0.43900
N491        N  0.53370231  0.04904753  0.72939746    -0.33200
N492        N  0.53251098  0.04821805  0.75712013    -0.27500
C493        C  0.52742673  0.03187867  0.76575247    -0.03600
C494        C  0.52530335  0.02198685  0.74234012     0.08600
C495        C  0.52944349  0.03329891  0.71967107     0.02400
H496        H  0.52501984  0.02740037  0.78742887     0.10100
H497        H  0.52890894  0.03017220  0.69766954     0.09200
N498        N  0.54006331  0.09076083  0.80144355    -0.34700
N499        N  0.54233959  0.10443867  0.78743873    -0.26800
C500        C  0.54407738  0.11638074  0.80581296    -0.02100
C501        C  0.54281235  0.10988013  0.83256588     0.06500
C502        C  0.54029177  0.09365038  0.82918880     0.04600
H503        H  0.54618408  0.12888682  0.80007294     0.09700
H504        H  0.53877386  0.08464819  0.84556964     0.08600
N505        N  0.56715102  0.16097671  0.54875191    -0.25800
N506        N  0.55742661  0.14512325  0.53623390    -0.33700
C507        C  0.55164772  0.13206392  0.55559253     0.02500
C508        C  0.55804668  0.14014952  0.58140966     0.08500
C509        C  0.56781378  0.15844078  0.57647769    -0.04600
H510        H  0.54332884  0.11779350  0.55118333     0.09200
H511        H  0.57470837  0.16909752  0.59185076     0.10400
Cu512      Cu  0.55245307  0.14193568  0.99356341     0.44200
Cu513      Cu  0.57822902  0.18516108  0.52761861     0.42000
Cu514      Cu  0.56606316  0.18189799  0.95405698     0.43900
N515        N  0.55061672  0.14249926  0.95030103    -0.33200
N516        N  0.55555135  0.15705003  0.93571598    -0.27500
C517        C  0.55397139  0.15323720  0.90812723    -0.03600
C518        C  0.54772507  0.13548425  0.90545273     0.08600
C519        C  0.54574719  0.12906085  0.93247576     0.02400
H520        H  0.55772975  0.16284601  0.89135176     0.10100
H521        H  0.54173297  0.11584795  0.93874951     0.09200
N522        N  0.57985669  0.20576886  0.97678555    -0.34700
N523        N  0.58519437  0.20706527  0.50293453    -0.26800
C524        C  0.59528503  0.22446529  0.51064965    -0.02100
C525        C  0.59609630  0.23456899  0.98844115     0.06500
C526        C  0.58609328  0.22232887  0.96731523     0.04600
H527        H  0.60144460  0.22932138  0.53105474     0.09700
H528        H  0.58408073  0.22532484  0.94621854     0.08600
N529        N  0.48536265  0.91352111  0.78193336    -0.25800
N530        N  0.48977352  0.92781568  0.79636254    -0.33700
C531        C  0.48781101  0.92377935  0.82395209     0.02500
C532        C  0.48190661  0.90614096  0.82683204     0.08500
C533        C  0.48047818  0.89999353  0.79991712    -0.04600
H534        H  0.49053192  0.93300797  0.84059200     0.09200
H535        H  0.47624593  0.88671983  0.79380976     0.10400
Cu536      Cu  0.49858728  0.95217181  0.77771571     0.44200
Cu537      Cu  0.48635526  0.91317228  0.73852454     0.42000
Cu538      Cu  0.50292375  0.95469371  0.70133720     0.43900
N539        N  0.50811740  0.97524617  0.75423650    -0.33200
N540        N  0.50978636  0.97622609  0.72656852    -0.27500
C541        C  0.51631745  0.99303841  0.71810411    -0.03600
C542        C  0.51887522  0.00307856  0.74156306     0.08600
C543        C  0.51354796  0.99138634  0.76408079     0.02400
H544        H  0.51888010  0.99754979  0.69645940     0.10100
H545        H  0.51347866  0.99432028  0.78603355     0.09200
N546        N  0.49472199  0.93093624  0.68146313    -0.34700
N547        N  0.48863138  0.91579575  0.69523083    -0.26800
C548        C  0.48428310  0.90285394  0.67670551    -0.02100
C549        C  0.48782193  0.91021631  0.65009698     0.06500
C550        C  0.49440860  0.92801186  0.65370714     0.04600
H551        H  0.47888377  0.88910511  0.68224370     0.09700
H552        H  0.49856841  0.93803319  0.63748466     0.11800
N553        N  0.46049806  0.85762169  0.93323126    -0.25800
N554        N  0.46993550  0.87331925  0.94620544    -0.33700
C555        C  0.47649929  0.88661837  0.92704883     0.02500
C556        C  0.47091226  0.87886187  0.90086644     0.08500
C557        C  0.46080317  0.86049422  0.90539310    -0.04600
H558        H  0.48470334  0.90084983  0.93187382     0.09200
H559        H  0.45421131  0.85001820  0.88971933     0.10400
Cu560      Cu  0.47336044  0.87583034  0.98931955     0.44200
Cu561      Cu  0.44820036  0.83324284  0.95432562     0.42000
Cu562      Cu  0.45703758  0.83526573  0.52961196     0.43900
N563        N  0.47441440  0.87514813  0.53267180    -0.33200
N564        N  0.46865746  0.86045313  0.54753684    -0.27500
C565        C  0.47079193  0.86458370  0.57504414    -0.03600
C566        C  0.47824203  0.88268448  0.57735858     0.08600
C567        C  0.48035677  0.88898451  0.55022805     0.02400
H568        H  0.46685111  0.85505041  0.59201940     0.10100
H569        H  0.48547475  0.90250942  0.54368705     0.09200
N570        N  0.44339676  0.81164808  0.50623744    -0.34700
N571        N  0.43946553  0.81093046  0.97931570    -0.26800
C572        C  0.42966445  0.79368823  0.97087414    -0.02100
C573        C  0.42738990  0.78303981  0.99356766     0.06500
C574        C  0.43635727  0.79484742  0.51553945     0.04600
H575        H  0.42480662  0.78931476  0.94970860     0.09700
H576        H  0.43731939  0.79143611  0.53693804     0.08600
N577        N  0.38423650  0.70479364  0.98585849    -0.25800
N578        N  0.37031318  0.70389313  0.97628380    -0.33700
C579        C  0.37533566  0.72066182  0.97118156     0.02500
C580        C  0.39318153  0.73270344  0.97836169     0.08500
C581        C  0.39845367  0.72220931  0.98756587    -0.04600
H582        H  0.36646493  0.72387582  0.96383563     0.09200
H583        H  0.41160524  0.72684539  0.99492425     0.10400
Cu584      Cu  0.34466620  0.68011353  0.97411399     0.44200
Cu585      Cu  0.38288423  0.68212700  0.99627492     0.42000
Cu586      Cu  0.33819411  0.64051778  0.00527291     0.43900
N587        N  0.31977183  0.65614006  0.98172034    -0.33200
N588        N  0.31734029  0.64201063  0.99436514    -0.27500
C589        C  0.29967275  0.62940342  0.99837273    -0.03600
C590        C  0.29061683  0.63593743  0.98760122     0.08600
C591        C  0.30375263  0.65282899  0.97705081     0.02400
H592        H  0.29388681  0.61643880  0.00830791     0.10100
H593        H  0.30185712  0.66228113  0.96754167     0.09200
N594        N  0.36157210  0.64234730  0.00950711    -0.34700
N595        N  0.37775678  0.65738097  0.00499541    -0.26800
C596        C  0.38981795  0.65376216  0.00639007    -0.02100
C597        C  0.38082641  0.63562435  0.01237626     0.06500
C598        C  0.36297424  0.62882197  0.01445303     0.04600
H599        H  0.40406718  0.66360241  0.00307998     0.09700
H600        H  0.35175990  0.61493076  0.01799336     0.08600
N601        N  0.46219171  0.55158420  0.79432459    -0.25800
N602        N  0.46906330  0.54464578  0.80865786    -0.33700
C603        C  0.46862060  0.54747256  0.83624127     0.02500
C604        C  0.46112778  0.55659420  0.83918536     0.08500
C605        C  0.45719694  0.55900470  0.81233625    -0.04600
H606        H  0.47344142  0.54326231  0.85281217     0.09200
H607        H  0.45123426  0.56568937  0.80628852     0.10400
Cu608      Cu  0.47882059  0.53177731  0.78994914     0.44200
Cu609      Cu  0.46002565  0.55087402  0.75097026     0.42000
Cu610      Cu  0.47525288  0.52822032  0.71385446     0.43900
N611        N  0.48759905  0.51960671  0.76614695    -0.33200
N612        N  0.48621760  0.51823605  0.73846410    -0.27500
C613        C  0.49331168  0.50990809  0.72953447    -0.03600
C614        C  0.49946013  0.50585226  0.75267461     0.08600
C615        C  0.49560415  0.51218068  0.77553614     0.02400
H616        H  0.49405285  0.50714509  0.70775273     0.10100
H617        H  0.49850717  0.51156546  0.79737059     0.09200
N618        N  0.46498724  0.54048687  0.69396081    -0.34700
N619        N  0.45949971  0.54881636  0.70765203    -0.26800
C620        C  0.45421745  0.55585004  0.68900500    -0.02100
C621        C  0.45649145  0.55172549  0.66239637     0.06500
C622        C  0.46333221  0.54200501  0.66615881     0.04600
H623        H  0.44936233  0.56361468  0.69444936     0.09700
H624        H  0.46710540  0.53669367  0.64996312     0.08600
N625        N  0.43876671  0.57926186  0.55736417    -0.25800
N626        N  0.44737291  0.57410057  0.54367454    -0.33700
C627        C  0.45295405  0.56724417  0.56210830     0.02500
C628        C  0.44760024  0.56816216  0.58857417     0.08500
C629        C  0.43867206  0.57583933  0.58495014    -0.04600
H630        H  0.46024945  0.56190249  0.55658495     0.09200
H631        H  0.43252076  0.57868138  0.60108875     0.10400
Cu632      Cu  0.45064233  0.57596291  0.00050069     0.44200
Cu633      Cu  0.42760809  0.59074383  0.53777219     0.42000
Cu634      Cu  0.43406796  0.59712427  0.96199660     0.43900
N635        N  0.45064916  0.57739120  0.95709026    -0.33200
N636        N  0.44447928  0.58504014  0.94284614    -0.27500
C637        C  0.44555747  0.58292143  0.91517009    -0.03600
C638        C  0.45276595  0.57353701  0.91208152     0.08600
C639        C  0.45584294  0.57022457  0.93893769     0.02400
H640        H  0.44114126  0.58757519  0.89865314     0.10100
H641        H  0.46112168  0.56286912  0.94489985     0.09200
N642        N  0.42259318  0.60650794  0.98598986    -0.34700
N643        N  0.41948667  0.60353613  0.51333041    -0.26800
C644        C  0.41127948  0.61080585  0.52205226    -0.02100
C645        C  0.40944841  0.61898052  0.99915273     0.06500
C646        C  0.41691665  0.61616903  0.97680646     0.04600
H647        H  0.40740891  0.61057547  0.54351000     0.09700
H648        H  0.41801986  0.62069324  0.95535566     0.08600
N649        N  0.54823734  0.45373165  0.71055685    -0.25800
N650        N  0.54087751  0.46014532  0.69616296    -0.33700
C651        C  0.54173739  0.45761211  0.66855585     0.02500
C652        C  0.55001013  0.44922410  0.66568598     0.08500
C653        C  0.55396296  0.44696185  0.69261499    -0.04600
H654        H  0.53680302  0.46165239  0.65188990     0.09200
H655        H  0.56057802  0.44094465  0.69875501     0.10400
Cu656      Cu  0.53024488  0.47218263  0.71516553     0.44200
Cu657      Cu  0.55037402  0.45458294  0.75389834     0.42000
Cu658      Cu  0.53325400  0.47528029  0.79164778     0.43900
N659        N  0.52074348  0.48363804  0.73929691    -0.33200
N660        N  0.52190315  0.48480080  0.76702004    -0.27500
C661        C  0.51454030  0.49285561  0.77601148    -0.03600
C662        C  0.50843383  0.49695198  0.75287290     0.08600
C663        C  0.51259185  0.49092459  0.72997005     0.02400
H664        H  0.51368118  0.49549045  0.79779589     0.10100
H665        H  0.50989463  0.49176305  0.70806660     0.09200
N666        N  0.54485711  0.46427003  0.81110071    -0.34700
N667        N  0.55109097  0.45670588  0.79719630    -0.26800
C668        C  0.55759152  0.45076718  0.81562199    -0.02100
C669        C  0.55531513  0.45481050  0.84228331     0.06500
C670        C  0.54722495  0.46334083  0.83881147     0.04600
H671        H  0.56345823  0.44397237  0.80998415     0.09700
H672        H  0.54329066  0.46842735  0.85513144     0.08600
N673        N  0.57034571  0.42418985  0.56146991    -0.25800
N674        N  0.56653284  0.43406011  0.54769890    -0.33700
C675        C  0.56136119  0.44112191  0.56611234     0.02500
C676        C  0.56194733  0.43543138  0.59268749     0.08500
C677        C  0.56770096  0.42474161  0.58913891    -0.04600
H678        H  0.55753628  0.44980961  0.56052230     0.09200
H679        H  0.56992800  0.41800302  0.60537394     0.10400
Cu680      Cu  0.56854293  0.43768539  0.50453819     0.44200
Cu681      Cu  0.57964603  0.41110715  0.54172679     0.42000
Cu682      Cu  0.58934893  0.42107328  0.96686204     0.43900
N683        N  0.57117034  0.43916337  0.96126290    -0.33200
N684        N  0.57877864  0.43300245  0.94733619    -0.27500
C685        C  0.57764723  0.43515186  0.91960852    -0.03600
C686        C  0.56894574  0.44305737  0.91612657     0.08600
C687        C  0.56500080  0.44542756  0.94281396     0.02400
H688        H  0.58251877  0.43099403  0.90328518     0.10100
H689        H  0.55793122  0.45100889  0.94843608     0.09200
N690        N  0.59642089  0.40728947  0.99067705    -0.34700
N691        N  0.59186147  0.40257633  0.51729686    -0.26800
C692        C  0.59772617  0.39294576  0.52582208    -0.02100
C693        C  0.60658255  0.39182706  0.50367430     0.06500
C694        C  0.60554127  0.40107587  0.98175185     0.04600
H695        H  0.59616303  0.38764779  0.54686882     0.09700
H696        H  0.61068057  0.40284571  0.96070393     0.08600
N697        N  0.64067881  0.31304842  0.99351119    -0.25800
N698        N  0.65541571  0.31401452  0.99630813    -0.33700
C699        C  0.65088187  0.29725542  0.99910134     0.02500
C700        C  0.63244583  0.28517146  0.99741569     0.08500
C701        C  0.62636767  0.29562779  0.99384700    -0.04600
H702        H  0.66033805  0.29408756  0.00183190     0.09200
H703        H  0.61259337  0.29098052  0.99236362     0.10400
Cu704      Cu  0.68095339  0.33815023  0.99523821     0.44200
Cu705      Cu  0.64101881  0.33567969  0.99126349     0.42000
Cu706      Cu  0.68498891  0.37972501  0.99217376     0.43900
N707        N  0.70527036  0.36355105  0.99328853    -0.33200
N708        N  0.70693235  0.37882623  0.99351766    -0.27500
C709        C  0.72450816  0.39271497  0.99323886    -0.03600
C710        C  0.73426059  0.38575391  0.99229468     0.08600
C711        C  0.72164542  0.36728356  0.99212993     0.02400
H712        H  0.72976104  0.40678260  0.99286278     0.10100
H713        H  0.72418384  0.35725737  0.99151096     0.09200
N714        N  0.66056026  0.37610516  0.99034464    -0.34700
N715        N  0.64475987  0.36016458  0.99105710    -0.26800
C716        C  0.63177181  0.36251273  0.99124025    -0.02100
C717        C  0.63974189  0.38078299  0.99021898     0.06500
C718        C  0.65796903  0.38901164  0.98940438     0.04600
H719        H  0.61757589  0.35169130  0.99167649     0.09700
H720        H  0.66857387  0.40332754  0.98882728     0.08600
C721        C  0.63082125  0.38971907  0.98978130    -0.15000
C722        C  0.61553348  0.38291577  0.00388097    -0.30100
H723        H  0.63739994  0.40257191  0.97891223     0.14100
H724        H  0.60977205  0.37089114  0.51690365     0.14600
C725        C  0.55405759  0.44416213  0.64002164    -0.11800
C726        C  0.55765042  0.44000895  0.61861146    -0.13400
C727        C  0.56427448  0.44728581  0.89007320    -0.11800
C728        C  0.56020821  0.45077012  0.86829433    -0.13400
C729        C  0.45572386  0.56765990  0.88631502    -0.11800
C730        C  0.45819822  0.56258212  0.86485460    -0.13400
C731        C  0.45059545  0.56217904  0.61449664    -0.11800
C732        C  0.45322318  0.55724558  0.63622808    -0.13400
C733        C  0.40219661  0.62952222  0.99843372    -0.15000
C734        C  0.38836888  0.62535843  0.01452693    -0.30100
H735        H  0.40763204  0.64027662  0.98291433     0.14100
H736        H  0.38180569  0.61359264  0.52808036     0.14600
C737        C  0.41747604  0.76328007  0.99446198    -0.15000
C738        C  0.40380692  0.75249961  0.97685007    -0.30100
H739        H  0.42079594  0.75744270  0.51080790     0.14100
H740        H  0.39948577  0.75827266  0.96207753     0.14600
C741        C  0.47473872  0.88810769  0.87443014    -0.11800
C742        C  0.47801553  0.89622250  0.85258954    -0.13400
C743        C  0.48486198  0.90098405  0.62410136    -0.11800
C744        C  0.48199738  0.89271213  0.60274333    -0.13400
C745        C  0.62183254  0.26540592  0.99996848    -0.15000
C746        C  0.60607914  0.25431154  0.98674431    -0.30100
H747        H  0.62771206  0.25989287  0.51139680     0.14100
H748        H  0.60102801  0.25980526  0.97290793     0.14600
C749        C  0.54557608  0.12615806  0.87991492    -0.11800
C750        C  0.54415556  0.11850269  0.85849416    -0.13400
C751        C  0.55485499  0.13124253  0.60797631    -0.11800
C752        C  0.55204331  0.12341570  0.62996397    -0.13400
C753        C  0.76538975  0.41053660  0.00511450    -0.15000
C754        C  0.75385030  0.39548352  0.99047709    -0.30100
H755        H  0.76034774  0.41585587  0.51925871     0.14100
H756        H  0.75881747  0.38925512  0.97865392     0.14600
C757        C  0.89748963  0.45812286  0.87209585    -0.11800
C758        C  0.88937648  0.45533410  0.89360551    -0.13400
C759        C  0.89683958  0.46351772  0.64374604    -0.11800
C760        C  0.88877426  0.46086241  0.62211635    -0.13400
C761        C  0.26010648  0.61467876  0.00653446    -0.15000
C762        C  0.27119580  0.62731061  0.98756482    -0.30100
H763        H  0.26554861  0.61090687  0.52303216     0.14100
H764        H  0.26611699  0.63219646  0.97254343     0.14600
C765        C  0.13487689  0.56277089  0.89516985    -0.11800
C766        C  0.12710180  0.55979696  0.87315604    -0.13400
C767        C  0.12742495  0.55090434  0.64501278    -0.11800
C768        C  0.13503256  0.55254906  0.62343624    -0.13400
loop_ 
_geom_bond_atom_site_label_1 
_geom_bond_atom_site_label_2 
_geom_bond_distance 
_geom_bond_site_symmetry_2 
_ccdc_geom_bond_type 
N1            N2   1.323       .  A
N1            C5   1.345       .  A
N1           Cu9   2.073       .  S
N2            C3   1.346       .  A
N2           Cu8   2.073       .  S
C3            C4   1.379       .  A
C3            H6   1.082       .  S
C4            C5   1.379       .  A
C4          C382   1.437       .  S
C5            H7   1.082       .  S
Cu8          N11   2.073       .  S
Cu9          N19   2.073       .  S
Cu10         N12   2.080       .  S
Cu10         N18   2.080       .  S
N11          N12   1.322       .  A
N11          C15   1.344       .  A
N12          C13   1.347       .  A
C13          C14   1.385       .  A
C13          H16   1.082       .  S
C14          C15   1.383       .  A
C14          C62   1.474       .  S
C15          H17   1.083       .  S
N18          N19   1.324       .  A
N18          C22   1.346       .  A
N19          C20   1.346       .  A
C20          C21   1.379       .  A
C20          H23   1.081       .  S
C21          C22   1.380       .  A
C21         C383   1.438       .  S
C22          H24   1.083       .  S
N25          N26   1.323       .  A
N25          C29   1.347       .  A
N25         Cu33   2.076       .  S
N26          C27   1.345       .  A
N26        Cu416   2.072       .  S
C27          C28   1.379       .  A
C27          H30   1.082       .  S
C28          C29   1.381       .  A
C28         C384   1.438       .  S
C29          H31   1.081       .  S
Cu32         N35   2.072       .  S
Cu32        N410   2.072       .  S
Cu33         N43   2.077       .  S
Cu34         N36   2.073       .  S
Cu34         N42   2.073       .  S
N35          N36   1.323       .  A
N35          C39   1.345       .  A
N36          C37   1.345       .  A
C37          C38   1.379       .  A
C37          H40   1.082       .  S
C38          C39   1.379       .  A
C38         C381   1.437       .  S
C39          H41   1.082       .  S
N42         N427   1.323       .  A
N42          C46   1.345       .  A
N43         N426   1.323   1_554  A
N43          C44   1.345       .  A
C44         C429   1.382       .  A
C44          H47   1.083       .  S
C45          C46   1.385       .  A
C45         C428   1.382       .  A
C45         C377   1.476       .  S
C46          H48   1.080       .  S
N49          N50   1.323       .  A
N49          C53   1.345       .  A
N49         Cu57   2.070       .  S
N50          C51   1.347       .  A
N50         Cu56   2.080       .  S
C51          C52   1.382       .  A
C51          H54   1.081       .  S
C52          C53   1.378       .  A
C52         C373   1.439       .  S
C53          H55   1.083       .  S
Cu56         N59   2.080       .  S
Cu57         N67   2.070       .  S
Cu58         N60   2.080       .  S
Cu58         N66   2.080       .  S
N59          N60   1.323       .  A
N59          C63   1.345       .  A
N60          C61   1.347       .  A
C61          C62   1.384   1_655  A
C61          H64   1.082       .  S
C62          C63   1.384   1_455  A
C63          H65   1.082       .  S
N66          N67   1.323       .  A
N66          C70   1.347       .  A
N67          C68   1.345       .  A
C68          C69   1.379       .  A
C68          H71   1.082       .  S
C69          C70   1.381       .  A
C69         C375   1.439       .  S
C70          H72   1.082       .  S
N73          N74   1.323       .  A
N73          C77   1.347       .  A
N73         Cu81   2.083       .  S
N74          C75   1.345       .  A
N74        Cu464   2.069       .  S
C75          C76   1.378       .  A
C75          H78   1.082       .  S
C76          C77   1.382       .  A
C76         C376   1.439       .  S
C77          H79   1.082       .  S
Cu80         N83   2.069       .  S
Cu80        N458   2.069       .  S
Cu81         N91   2.083       .  S
Cu82         N84   2.081       .  S
Cu82         N90   2.081       .  S
N83          N84   1.323       .  A
N83          C87   1.345       .  A
N84          C85   1.347       .  A
C85          C86   1.381       .  A
C85          H88   1.082       .  S
C86          C87   1.379       .  A
C86         C374   1.439       .  S
C87          H89   1.082       .  S
N90         N475   1.323       .  A
N90          C94   1.346       .  A
N91         N474   1.323   1_554  A
N91          C92   1.347       .  A
C92         C477   1.383       .  A
C92          H95   1.082       .  S
C93          C94   1.385       .  A
C93         C476   1.383       .  A
C93         C369   1.478       .  S
C94          H96   1.082       .  S
N97          N98   1.323       .  A
N97         C101   1.345       .  A
N97        Cu105   2.071       .  S
N98          C99   1.345       .  A
N98        Cu104   2.069       .  S
C99         C100   1.379       .  A
C99         H102   1.082       .  S
C100        C101   1.379       .  A
C100        C368   1.435       .  S
C101        H103   1.082       .  S
Cu104       N107   2.069       .  S
Cu105       N115   2.071       .  S
Cu106       N108   2.079       .  S
Cu106       N114   2.079       .  S
N107        N108   1.323       .  A
N107        C111   1.345       .  A
N108        C109   1.345       .  A
C109        C110   1.384       .  A
C109        H112   1.082       .  S
C110        C111   1.382       .  A
C110        C158   1.471       .  S
C111        H113   1.081       .  S
N114        N115   1.323       .  A
N114        C118   1.347       .  A
N115        C116   1.345       .  A
C116        C117   1.378       .  A
C116        H119   1.081       .  S
C117        C118   1.382       .  A
C117        C366   1.438       .  S
C118        H120   1.080       .  S
N121        N122   1.323       .  A
N121        C125   1.345       .  A
N121       Cu129   2.072       .  S
N122        C123   1.344       .  A
N122       Cu512   2.068   1_554  S
C123        C124   1.378       .  A
C123        H126   1.081       .  S
C124        C125   1.379       .  A
C124        C367   1.435       .  S
C125        H127   1.082       .  S
Cu128       N131   2.068       .  S
Cu128       N506   2.068       .  S
Cu129       N139   2.072       .  S
Cu130       N132   2.083       .  S
Cu130       N138   2.082       .  S
N131        N132   1.323       .  A
N131        C135   1.345       .  A
N132        C133   1.347       .  A
C133        C134   1.382       .  A
C133        H136   1.082       .  S
C134        C135   1.378       .  A
C134        C365   1.438       .  S
C135        H137   1.081       .  S
N138        N523   1.323       .  A
N138        C142   1.346       .  A
N139        N522   1.323   1_554  A
N139        C140   1.345       .  A
C140        C525   1.383   1_554  A
C140        H143   1.081       .  S
C141        C142   1.382       .  A
C141        C524   1.383       .  A
C141        C362   1.475       .  S
C142        H144   1.083       .  S
N145        N146   1.322       .  A
N145        C149   1.345       .  A
N145       Cu153   2.070       .  S
N146        C147   1.345       .  A
N146       Cu152   2.072       .  S
C147        C148   1.380       .  A
C147        H150   1.082       .  S
C148        C149   1.379       .  A
C148        C358   1.437       .  S
C149        H151   1.082       .  S
Cu152       N155   2.073       .  S
Cu153       N163   2.070       .  S
Cu154       N156   2.079       .  S
Cu154       N162   2.079       .  S
N155        N156   1.323       .  A
N155        C159   1.345       .  A
N156        C157   1.346       .  A
C157        C158   1.384   1_565  A
C157        H160   1.081       .  S
C158        C159   1.382   1_545  A
C159        H161   1.082       .  S
N162        N163   1.323       .  A
N162        C166   1.347       .  A
N163        C164   1.344       .  A
C164        C165   1.378       .  A
C164        H167   1.082       .  S
C165        C166   1.382       .  A
C165        C359   1.438       .  S
C166        H168   1.081       .  S
N169        N170   1.322       .  A
N169        C173   1.346       .  A
N169       Cu177   2.072       .  S
N170        C171   1.345       .  A
N170       Cu176   2.069       .  S
C171        C172   1.379       .  A
C171        H174   1.082       .  S
C172        C173   1.380       .  A
C172        C357   1.437       .  S
C173        H175   1.082       .  S
Cu176       N563   2.069       .  S
Cu177       N187   2.072       .  S
Cu178       N180   2.082       .  S
Cu178       N186   2.082       .  S
N179        N180   1.323       .  A
N179        C183   1.345       .  A
N179       Cu560   2.069   1_554  S
N180        C181   1.347       .  A
C181        C182   1.382       .  A
C181        H184   1.081       .  S
C182        C183   1.378       .  A
C182        C360   1.438       .  S
C183        H185   1.081       .  S
N186        N571   1.323   1_554  A
N186        C190   1.347       .  A
N187        N570   1.323       .  A
N187        C188   1.344       .  A
C188        C189   1.383       .  A
C188        H191   1.080       .  S
C189        C574   1.383       .  A
C189        C353   1.476       .  S
C190        C573   1.383   1_554  A
C190        H192   1.083       .  S
N193        N194   1.322       .  A
N193        C197   1.346       .  A
N193       Cu201   2.074       .  S
N194        C195   1.344       .  A
N194       Cu200   2.070       .  S
C195        C196   1.381       .  A
C195        H198   1.082       .  S
C196        C197   1.385       .  A
C196        C354   1.474       .  S
C197        H199   1.082       .  S
Cu200       N203   2.071       .  S
Cu201       N211   2.074       .  S
Cu202       N204   2.080       .  S
Cu202       N210   2.080       .  S
N203        N204   1.323       .  A
N203        C207   1.344       .  A
N204        C205   1.346       .  A
C205        C206   1.386       .  A
C205        H208   1.083       .  S
C206        C207   1.380       .  A
C206        C378   1.475       .  S
C207        H209   1.081       .  S
N210        N211   1.323       .  A
N210        C214   1.347       .  A
N211        C212   1.344       .  A
C212        C213   1.383       .  A
C212        H215   1.082       .  S
C213        C214   1.383       .  A
C213        C350   1.476       .  S
C214        H216   1.081       .  S
N217        N218   1.323       .  A
N217        C221   1.345       .  A
N217       Cu225   2.070       .  S
N218        C219   1.346       .  A
N218       Cu224   2.079       .  S
C219        C220   1.381       .  A
C219        H222   1.081       .  S
C220        C221   1.379       .  A
C220        C346   1.437       .  S
C221        H223   1.080       .  S
Cu224       N227   2.080       .  S
Cu225       N235   2.070       .  S
Cu226       N228   2.081       .  S
Cu226       N234   2.080       .  S
N227        N228   1.323       .  A
N227        C231   1.346       .  A
N228        C229   1.346       .  A
C229        C230   1.384       .  A
C229        H232   1.083       .  S
C230        C231   1.384       .  A
C230        C278   1.475       .  S
C231        H233   1.081       .  S
N234        N235   1.323       .  A
N234        C238   1.347       .  A
N235        C236   1.345       .  A
C236        C237   1.379       .  A
C236        H239   1.081       .  S
C237        C238   1.381       .  A
C237        C348   1.438       .  S
C238        H240   1.082       .  S
N241        N242   1.323       .  A
N241        C245   1.347       .  A
N241       Cu249   2.081       .  S
N242        C243   1.345       .  A
N242       Cu632   2.070       .  S
C243        C244   1.379       .  A
C243        H246   1.081       .  S
C244        C245   1.381       .  A
C244        C347   1.438       .  S
C245        H247   1.082       .  S
Cu248       N251   2.069       .  S
Cu248       N626   2.070       .  S
Cu249       N259   2.081       .  S
Cu250       N252   2.076       .  S
Cu250       N258   2.076       .  S
N251        N252   1.323       .  A
N251        C255   1.345       .  A
N252        C253   1.346       .  A
C253        C254   1.381       .  A
C253        H256   1.081       .  S
C254        C255   1.379       .  A
C254        C345   1.437       .  S
C255        H257   1.081       .  S
N258        N643   1.323       .  A
N258        C262   1.345       .  A
N259        N642   1.323   1_554  A
N259        C260   1.347       .  A
C260        C645   1.385   1_554  A
C260        H263   1.081       .  S
C261        C262   1.380       .  A
C261        C644   1.385       .  A
C261        C349   1.474       .  S
C262        H264   1.082       .  S
N265        N266   1.323       .  A
N265        C269   1.345       .  A
N265       Cu273   2.069       .  S
N266        C267   1.348       .  A
N266       Cu272   2.086       .  S
C267        C268   1.383       .  A
C267        H270   1.081       .  S
C268        C269   1.379       .  A
C268        C341   1.441       .  S
C269        H271   1.081       .  S
Cu272       N275   2.086       .  S
Cu273       N283   2.069       .  S
Cu274       N276   2.077       .  S
Cu274       N282   2.076       .  S
N275        N276   1.323       .  A
N275        C279   1.346       .  A
N276        C277   1.346       .  A
C277        C278   1.384       .  A
C277        H280   1.081       .  S
C278        C279   1.385       .  A
C279        H281   1.083       .  S
N282        N283   1.323       .  A
N282        C286   1.346       .  A
N283        C284   1.345       .  A
C284        C285   1.378       .  A
C284        H287   1.082       .  S
C285        C286   1.380       .  A
C285        C344   1.436       .  S
C286        H288   1.082       .  S
N289        N290   1.323       .  A
N289        C293   1.348       .  A
N289       Cu297   2.086       .  S
N290        C291   1.345       .  A
N290       Cu296   2.070       .  S
C291        C292   1.378       .  A
C291        H294   1.082       .  S
C292        C293   1.383       .  A
C292        C342   1.441       .  S
C293        H295   1.080       .  S
Cu296       N683   2.070   1_554  S
Cu297       N307   2.085       .  S
Cu298       N300   2.069       .  S
Cu298       N306   2.069       .  S
N299        N300   1.322       .  A
N299        C303   1.345       .  A
N299       Cu680   2.070       .  S
N300        C301   1.345       .  A
C301        C302   1.380       .  A
C301        H304   1.082       .  S
C302        C303   1.379       .  A
C302        C343   1.436       .  S
C303        H305   1.082       .  S
N306        N691   1.323       .  A
N306        C310   1.345       .  A
N307        N690   1.323   1_554  A
N307        C308   1.346       .  A
C308        C309   1.382       .  A
C308        H311   1.083       .  S
C309        C694   1.382   1_554  A
C309        C722   1.473       .  S
C310        C693   1.382       .  A
C310        H312   1.081       .  S
N313        N314   1.321       .  A
N313        C317   1.346       .  A
N313       Cu321   2.070       .  S
N314        C315   1.345       .  A
N314       Cu320   2.076       .  S
C315        C316   1.382       .  A
C315        H318   1.082       .  S
C316        C317   1.384       .  A
C316        C361   1.475       .  S
C317        H319   1.082       .  S
Cu320       N323   2.077       .  S
Cu321       N331   2.070       .  S
Cu322       N324   2.085       .  S
Cu322       N330   2.086       .  S
N323        N324   1.323       .  A
N323        C327   1.344       .  A
N324        C325   1.349       .  A
C325        C326   1.386       .  A
C325        H328   1.082       .  S
C326        C327   1.380       .  A
C326        C370   1.476       .  S
C327        H329   1.082       .  S
N330        N331   1.324       .  A
N330        C334   1.347       .  A
N331        C332   1.344       .  A
C332        C333   1.381       .  A
C332        H335   1.082       .  S
C333        C334   1.383       .  A
C333        C337   1.473       .  S
C334        H336   1.082       .  S
C337        C338   1.343       .  D
C337        H339   1.086       .  S
C338        C693   1.473       .  S
C338        H724   1.087       .  S
H340        C722   1.086       .  S
C341        C342   1.208       .  T
C343        C344   1.205       .  T
C345        C346   1.206       .  T
C347        C348   1.207       .  T
C349        C350   1.342       .  D
C349        H351   1.087       .  S
C350        H736   1.086       .  S
H352        C734   1.086       .  S
C353        C354   1.343       .  D
C353        H739   1.087       .  S
C354        H356   1.086       .  S
H355        C737   1.087   1_554  S
C357        C358   1.206       .  T
C359        C360   1.207       .  T
C361        C362   1.343       .  D
C361        H747   1.087       .  S
C362        H364   1.087       .  S
H363        C745   1.087   1_554  S
C365        C366   1.207       .  T
C367        C368   1.205       .  T
C369        C370   1.342       .  D
C369        H755   1.087       .  S
C370        H372   1.087       .  S
H371        C753   1.087       .  S
C373        C374   1.207       .  T
C375        C376   1.207       .  T
C377        C378   1.342       .  D
C377        H763   1.087       .  S
C378        H380   1.085       .  S
H379        C761   1.086       .  S
C381        C382   1.206       .  T
C383        C384   1.206       .  T
N385        N386   1.323       .  A
N385        C389   1.345       .  A
N385       Cu393   2.073       .  S
N386        C387   1.345       .  A
N386       Cu392   2.073       .  S
C387        C388   1.379       .  A
C387        H390   1.082       .  S
C388        C389   1.379       .  A
C388        C766   1.437       .  S
C389        H391   1.082       .  S
Cu392       N395   2.073       .  S
Cu393       N403   2.073       .  S
Cu394       N396   2.080       .  S
Cu394       N402   2.080       .  S
N395        N396   1.322       .  A
N395        C399   1.344       .  A
N396        C397   1.347       .  A
C397        C398   1.385       .  A
C397        H400   1.082       .  S
C398        C399   1.383       .  A
C398        C446   1.474       .  S
C399        H401   1.082       .  S
N402        N403   1.324       .  A
N402        C406   1.346       .  A
N403        C404   1.346       .  A
C404        C405   1.379       .  A
C404        H407   1.082       .  S
C405        C406   1.380       .  A
C405        C767   1.438       .  S
C406        H408   1.082       .  S
N409        N410   1.323       .  A
N409        C413   1.346       .  A
N409       Cu417   2.076       .  S
N410        C411   1.345       .  A
C411        C412   1.379       .  A
C411        H414   1.082       .  S
C412        C413   1.381       .  A
C412        C768   1.438       .  S
C413        H415   1.082       .  S
Cu416       N419   2.072   1_554  S
Cu417       N427   2.077       .  S
Cu418       N420   2.073       .  S
Cu418       N426   2.073       .  S
N419        N420   1.323       .  A
N419        C423   1.345       .  A
N420        C421   1.345       .  A
C421        C422   1.379       .  A
C421        H424   1.082       .  S
C422        C423   1.379       .  A
C422        C765   1.437       .  S
C423        H425   1.082       .  S
N426        C430   1.345       .  A
N427        C428   1.345       .  A
C428        H431   1.083       .  S
C429        C430   1.385   1_554  A
C429        C761   1.476       .  S
C430        H432   1.080       .  S
N433        N434   1.323       .  A
N433        C437   1.345       .  A
N433       Cu441   2.069       .  S
N434        C435   1.347       .  A
N434       Cu440   2.080       .  S
C435        C436   1.382       .  A
C435        H438   1.082       .  S
C436        C437   1.378       .  A
C436        C757   1.439       .  S
C437        H439   1.082       .  S
Cu440       N443   2.080       .  S
Cu441       N451   2.070       .  S
Cu442       N444   2.080       .  S
Cu442       N450   2.080       .  S
N443        N444   1.323       .  A
N443        C447   1.345       .  A
N444        C445   1.347       .  A
C445        C446   1.384   1_655  A
C445        H448   1.082       .  S
C446        C447   1.384   1_455  A
C447        H449   1.082       .  S
N450        N451   1.323       .  A
N450        C454   1.346       .  A
N451        C452   1.345       .  A
C452        C453   1.379       .  A
C452        H455   1.082       .  S
C453        C454   1.381       .  A
C453        C759   1.438       .  S
C454        H456   1.083       .  S
N457        N458   1.323       .  A
N457        C461   1.347       .  A
N457       Cu465   2.083       .  S
N458        C459   1.345       .  A
C459        C460   1.378       .  A
C459        H462   1.082       .  S
C460        C461   1.382       .  A
C460        C760   1.438       .  S
C461        H463   1.082       .  S
Cu464       N467   2.069   1_554  S
Cu465       N475   2.083       .  S
Cu466       N468   2.081       .  S
Cu466       N474   2.081       .  S
N467        N468   1.323       .  A
N467        C471   1.345       .  A
N468        C469   1.347       .  A
C469        C470   1.382       .  A
C469        H472   1.082       .  S
C470        C471   1.379       .  A
C470        C758   1.439       .  S
C471        H473   1.082       .  S
N474        C478   1.346       .  A
N475        C476   1.347       .  A
C476        H479   1.082       .  S
C477        C478   1.385   1_554  A
C477        C753   1.478       .  S
C478        H480   1.081       .  S
N481        N482   1.323       .  A
N481        C485   1.345       .  A
N481       Cu489   2.071       .  S
N482        C483   1.345       .  A
N482       Cu488   2.069       .  S
C483        C484   1.379       .  A
C483        H486   1.082       .  S
C484        C485   1.379       .  A
C484        C752   1.435       .  S
C485        H487   1.082       .  S
Cu488       N491   2.070       .  S
Cu489       N499   2.071       .  S
Cu490       N492   2.079       .  S
Cu490       N498   2.079       .  S
N491        N492   1.323       .  A
N491        C495   1.345       .  A
N492        C493   1.345       .  A
C493        C494   1.384       .  A
C493        H496   1.082       .  S
C494        C495   1.382       .  A
C494        C542   1.471       .  S
C495        H497   1.082       .  S
N498        N499   1.323       .  A
N498        C502   1.347       .  A
N499        C500   1.345       .  A
C500        C501   1.378       .  A
C500        H503   1.082       .  S
C501        C502   1.382       .  A
C501        C750   1.438       .  S
C502        H504   1.081       .  S
N505        N506   1.323       .  A
N505        C509   1.346       .  A
N505       Cu513   2.073       .  S
N506        C507   1.344       .  A
C507        C508   1.378       .  A
C507        H510   1.081       .  S
C508        C509   1.380       .  A
C508        C751   1.435       .  S
C509        H511   1.082       .  S
Cu512       N515   2.068       .  S
Cu513       N523   2.073       .  S
Cu514       N516   2.082       .  S
Cu514       N522   2.082       .  S
N515        N516   1.323       .  A
N515        C519   1.345       .  A
N516        C517   1.347       .  A
C517        C518   1.382       .  A
C517        H520   1.081       .  S
C518        C519   1.378       .  A
C518        C749   1.438       .  S
C519        H521   1.081       .  S
N522        C526   1.346       .  A
N523        C524   1.345       .  A
C524        H527   1.080       .  S
C525        C526   1.382       .  A
C525        C746   1.475       .  S
C526        H528   1.083       .  S
N529        N530   1.322       .  A
N529        C533   1.345       .  A
N529       Cu537   2.070       .  S
N530        C531   1.346       .  A
N530       Cu536   2.073       .  S
C531        C532   1.380       .  A
C531        H534   1.082       .  S
C532        C533   1.379       .  A
C532        C742   1.437       .  S
C533        H535   1.082       .  S
Cu536       N539   2.073       .  S
Cu537       N547   2.070       .  S
Cu538       N540   2.079       .  S
Cu538       N546   2.079       .  S
N539        N540   1.323       .  A
N539        C543   1.345       .  A
N540        C541   1.346       .  A
C541        C542   1.384   1_565  A
C541        H544   1.081       .  S
C542        C543   1.382   1_545  A
C543        H545   1.083       .  S
N546        N547   1.323       .  A
N546        C550   1.347       .  A
N547        C548   1.344       .  A
C548        C549   1.378       .  A
C548        H551   1.082       .  S
C549        C550   1.382       .  A
C549        C743   1.438       .  S
C550        H552   1.080       .  S
N553        N554   1.322       .  A
N553        C557   1.346       .  A
N553       Cu561   2.072       .  S
N554        C555   1.344       .  A
N554       Cu560   2.068       .  S
C555        C556   1.379       .  A
C555        H558   1.083       .  S
C556        C557   1.381       .  A
C556        C741   1.437       .  S
C557        H559   1.081       .  S
Cu561       N571   2.073       .  S
Cu562       N564   2.082       .  S
Cu562       N570   2.082       .  S
N563        N564   1.323       .  A
N563        C567   1.345       .  A
N564        C565   1.347       .  A
C565        C566   1.382       .  A
C565        H568   1.081       .  S
C566        C567   1.378       .  A
C566        C744   1.438       .  S
C567        H569   1.082       .  S
N570        C574   1.347       .  A
N571        C572   1.344       .  A
C572        C573   1.383       .  A
C572        H575   1.080       .  S
C573        C737   1.476       .  S
C574        H576   1.082       .  S
N577        N578   1.322       .  A
N577        C581   1.346       .  A
N577       Cu585   2.074       .  S
N578        C579   1.344       .  A
N578       Cu584   2.070       .  S
C579        C580   1.381       .  A
C579        H582   1.082       .  S
C580        C581   1.385       .  A
C580        C738   1.474       .  S
C581        H583   1.082       .  S
Cu584       N587   2.071       .  S
Cu585       N595   2.074   1_556  S
Cu586       N588   2.080   1_554  S
Cu586       N594   2.080       .  S
N587        N588   1.323       .  A
N587        C591   1.344       .  A
N588        C589   1.346       .  A
C589        C590   1.386       .  A
C589        H592   1.083   1_556  S
C590        C591   1.380       .  A
C590        C762   1.475       .  S
C591        H593   1.081       .  S
N594        N595   1.323       .  A
N594        C598   1.347       .  A
N595        C596   1.345       .  A
C596        C597   1.383       .  A
C596        H599   1.082       .  S
C597        C598   1.383       .  A
C597        C734   1.476       .  S
C598        H600   1.081       .  S
N601        N602   1.323       .  A
N601        C605   1.345       .  A
N601       Cu609   2.070       .  S
N602        C603   1.346       .  A
N602       Cu608   2.079       .  S
C603        C604   1.381       .  A
C603        H606   1.081       .  S
C604        C605   1.379       .  A
C604        C730   1.437       .  S
C605        H607   1.081       .  S
Cu608       N611   2.079       .  S
Cu609       N619   2.070       .  S
Cu610       N612   2.081       .  S
Cu610       N618   2.080       .  S
N611        N612   1.323       .  A
N611        C615   1.346       .  A
N612        C613   1.346       .  A
C613        C614   1.384       .  A
C613        H616   1.082       .  S
C614        C615   1.384       .  A
C614        C662   1.475       .  S
C615        H617   1.081       .  S
N618        N619   1.323       .  A
N618        C622   1.347       .  A
N619        C620   1.345       .  A
C620        C621   1.379       .  A
C620        H623   1.082       .  S
C621        C622   1.381       .  A
C621        C732   1.438       .  S
C622        H624   1.082       .  S
N625        N626   1.323       .  A
N625        C629   1.347       .  A
N625       Cu633   2.081       .  S
N626        C627   1.345       .  A
C627        C628   1.379       .  A
C627        H630   1.081       .  S
C628        C629   1.381       .  A
C628        C731   1.438       .  S
C629        H631   1.082       .  S
Cu632       N635   2.069   1_554  S
Cu633       N643   2.081       .  S
Cu634       N636   2.076       .  S
Cu634       N642   2.076       .  S
N635        N636   1.323       .  A
N635        C639   1.345       .  A
N636        C637   1.347       .  A
C637        C638   1.381       .  A
C637        H640   1.081       .  S
C638        C639   1.379       .  A
C638        C729   1.437       .  S
C639        H641   1.081       .  S
N642        C646   1.345       .  A
N643        C644   1.347       .  A
C644        H647   1.081       .  S
C645        C646   1.381       .  A
C645        C733   1.474       .  S
C646        H648   1.082       .  S
N649        N650   1.323       .  A
N649        C653   1.345       .  A
N649       Cu657   2.069       .  S
N650        C651   1.348       .  A
N650       Cu656   2.086       .  S
C651        C652   1.383       .  A
C651        H654   1.081       .  S
C652        C653   1.379       .  A
C652        C725   1.441       .  S
C653        H655   1.081       .  S
Cu656       N659   2.086       .  S
Cu657       N667   2.069       .  S
Cu658       N660   2.077       .  S
Cu658       N666   2.076       .  S
N659        N660   1.323       .  A
N659        C663   1.346       .  A
N660        C661   1.346       .  A
C661        C662   1.384       .  A
C661        H664   1.081       .  S
C662        C663   1.384       .  A
C663        H665   1.083       .  S
N666        N667   1.323       .  A
N666        C670   1.346       .  A
N667        C668   1.345       .  A
C668        C669   1.378       .  A
C668        H671   1.082       .  S
C669        C670   1.380       .  A
C669        C728   1.436       .  S
C670        H672   1.082       .  S
N673        N674   1.323       .  A
N673        C677   1.348       .  A
N673       Cu681   2.085       .  S
N674        C675   1.345       .  A
N674       Cu680   2.070       .  S
C675        C676   1.378       .  A
C675        H678   1.082       .  S
C676        C677   1.383       .  A
C676        C726   1.440       .  S
C677        H679   1.080       .  S
Cu681       N691   2.084       .  S
Cu682       N684   2.070       .  S
Cu682       N690   2.070       .  S
N683        N684   1.322       .  A
N683        C687   1.345       .  A
N684        C685   1.345       .  A
C685        C686   1.380       .  A
C685        H688   1.082       .  S
C686        C687   1.379       .  A
C686        C727   1.436       .  S
C687        H689   1.082       .  S
N690        C694   1.345       .  A
N691        C692   1.346       .  A
C692        C693   1.382       .  A
C692        H695   1.083       .  S
C694        H696   1.081       .  S
N697        N698   1.321       .  A
N697        C701   1.346       .  A
N697       Cu705   2.070       .  S
N698        C699   1.345       .  A
N698       Cu704   2.076       .  S
C699        C700   1.382       .  A
C699        H702   1.083   1_556  S
C700        C701   1.384       .  A
C700        C745   1.475       .  S
C701        H703   1.081       .  S
Cu704       N707   2.076       .  S
Cu705       N715   2.071       .  S
Cu706       N708   2.085       .  S
Cu706       N714   2.086       .  S
N707        N708   1.323       .  A
N707        C711   1.344       .  A
N708        C709   1.349       .  A
C709        C710   1.386       .  A
C709        H712   1.082       .  S
C710        C711   1.380       .  A
C710        C754   1.476       .  S
C711        H713   1.082       .  S
N714        N715   1.324       .  A
N714        C718   1.347       .  A
N715        C716   1.344       .  A
C716        C717   1.381       .  A
C716        H719   1.082       .  S
C717        C718   1.383       .  A
C717        C721   1.474       .  S
C718        H720   1.081       .  S
C721        C722   1.343   1_556  D
C721        H723   1.086       .  S
C725        C726   1.208       .  T
C727        C728   1.205       .  T
C729        C730   1.206       .  T
C731        C732   1.207       .  T
C733        C734   1.342   1_556  D
C733        H735   1.087       .  S
C737        C738   1.343       .  D
C738        H740   1.087       .  S
C741        C742   1.206       .  T
C743        C744   1.207       .  T
C745        C746   1.343       .  D
C746        H748   1.087       .  S
C749        C750   1.207       .  T
C751        C752   1.205       .  T
C753        C754   1.342   1_554  D
C754        H756   1.087       .  S
C757        C758   1.207       .  T
C759        C760   1.207       .  T
C761        C762   1.342   1_554  D
C762        H764   1.085       .  S
C765        C766   1.206       .  T
C767        C768   1.206       .  T
