geometry optimzed in LAMMPS
_audit_creation_date              2020-12-01 
_audit_creation_method            'lammps2cif' 
_symmetry_space_group_name_H-M    'P1' 
_symmetry_Int_Tables_number       1 
_symmetry_cell_setting            triclinic 
loop_ 
_symmetry_equiv_pos_as_xyz 
  x,y,z 
_cell_length_a                    25.32178132 
_cell_length_b                    24.785368116505193 
_cell_length_c                    25.437086582770682 
_cell_angle_alpha                 91.21057734965412 
_cell_angle_beta                  91.21284035524748 
_cell_angle_gamma                 90.46212151583673 
loop_ 
_atom_site_label 
_atom_site_type_symbol 
_atom_site_fract_x 
_atom_site_fract_y 
_atom_site_fract_z 
_atom_site_charge 
O1          O  0.46769262  0.50370489  0.87256174    -0.81300
O2          O  0.58058562  0.51911270  0.08130582    -0.81300
O3          O  0.40211239  0.53311679  0.02148813    -0.81300
O4          O  0.58843760  0.57129976  0.91099201    -0.81200
O5          O  0.48004625  0.54272673  0.06132273    -0.81300
O6          O  0.57101133  0.50373772  0.85536455    -0.81300
O7          O  0.59302254  0.57888682  0.02116659    -0.81300
O8          O  0.46236827  0.56377906  0.93770392    -0.81300
C9          C  0.45536699  0.55076096  0.88948757     1.08400
C10         C  0.59707783  0.56517336  0.06867838     1.08300
C11         C  0.43036128  0.55471702  0.05805114     1.08500
C12         C  0.58547558  0.55245855  0.86421925     1.08300
O13         O  0.58384539  0.40427647  0.91201863    -0.81300
O14         O  0.50522193  0.44854594  0.10714431    -0.81300
O15         O  0.41501130  0.45873327  0.94013701    -0.81300
O16         O  0.64200886  0.47235208  0.02142726    -0.81200
O17         O  0.57666764  0.41505558  0.03407146    -0.81300
O18         O  0.47724294  0.40121900  0.92793645    -0.81300
O19         O  0.64217925  0.46994894  0.91561393    -0.81200
O20         O  0.45114232  0.43849133  0.03805602    -0.81300
Co21       Co  0.52537449  0.45360399  0.89648404     1.51500
Co22       Co  0.52660022  0.47525490  0.04200711     1.51700
Co23       Co  0.46235574  0.50449982  0.98831609     1.51600
Co24       Co  0.61120327  0.52267643  0.96752436     1.51500
O25         O  0.53697634  0.49037735  0.96693964    -1.43200
C26         C  0.62993543  0.42138618  0.90354972     1.08400
C27         C  0.46458959  0.42679423  0.08586555     1.08500
C28         C  0.42905140  0.41243980  0.92371960     1.08400
C29         C  0.62540033  0.42752884  0.03884675     1.08400
O30         O  0.54851371  0.90421272  0.42653945    -0.81300
O31         O  0.58218143  0.11683070  0.50850575    -0.81300
O32         O  0.60134022  0.07623971  0.39545050    -0.81300
O33         O  0.55766189  0.97557626  0.58631383    -0.81200
O34         O  0.54419558  0.13784545  0.41764325    -0.81300
O35         O  0.58217758  0.93529729  0.51599186    -0.81300
O36         O  0.55940847  0.08220852  0.58103987    -0.81300
O37         O  0.60374427  0.96498107  0.39805286    -0.81300
C38         C  0.59145585  0.91596234  0.40452887     1.08400
C39         C  0.58997087  0.11242528  0.55657981     1.08300
C40         C  0.58799893  0.12518623  0.39739565     1.08500
C41         C  0.58669280  0.94174042  0.56452682     1.08300
O42         O  0.48533685  0.89006406  0.51204586    -0.81300
O43         O  0.44652793  0.07882193  0.43907351    -0.81300
O44         O  0.49400615  0.96136128  0.36772273    -0.81300
O45         O  0.45025410  0.08409593  0.54146046    -0.81200
O46         O  0.48272574  0.15834758  0.50662573    -0.81300
O47         O  0.44803161  0.95778132  0.43864864    -0.81300
O48         O  0.45162596  0.96509355  0.54639063    -0.81200
O49         O  0.48942389  0.07003367  0.36622208    -0.81300
Co50       Co  0.51446103  0.95069230  0.48081422     1.51500
Co51       Co  0.51383235  0.09557802  0.47700639     1.51700
Co52       Co  0.54705352  0.01881295  0.38797981     1.51600
Co53       Co  0.50802491  0.02658888  0.55227780     1.51500
O54         O  0.53812352  0.02270360  0.46919257    -1.43200
C55         C  0.45647420  0.91291360  0.54590788     1.08400
C56         C  0.44723180  0.08212891  0.38982565     1.08500
C57         C  0.45292250  0.94548920  0.39056416     1.08400
C58         C  0.45224486  0.13626438  0.53905131     1.08400
O59         O  0.97698923  0.42402984  0.42837643    -0.81300
O60         O  0.09167903  0.43549816  0.52160100    -0.81300
O61         O  0.08837418  0.45831840  0.40084493    -0.81300
O62         O  0.97344723  0.48418467  0.59650590    -0.81200
O63         O  0.16052026  0.47446067  0.44938281    -0.81300
O64         O  0.96591654  0.42244906  0.53387312    -0.81300
O65         O  0.07963131  0.48915977  0.59087244    -0.81300
O66         O  0.98640713  0.48266376  0.36835409    -0.81300
C67         C  0.97013701  0.43648197  0.38113083     1.08400
C68         C  0.09677607  0.44541713  0.57059590     1.08300
C69         C  0.13845581  0.45119880  0.40999027     1.08500
C70         C  0.96025220  0.43660438  0.58127725     1.08300
O71         O  0.90832128  0.52315509  0.53118186    -0.81300
O72         O  0.10954384  0.56723736  0.43059572    -0.81300
O73         O  0.98953530  0.58595681  0.41988568    -0.81300
O74         O  0.07366634  0.59692147  0.54782532    -0.81200
O75         O  0.13663129  0.54069337  0.52984625    -0.81300
O76         O  0.92207186  0.52913020  0.42668251    -0.81300
O77         O  0.96559415  0.58855665  0.54859293    -0.81200
O78         O  0.06806387  0.55365892  0.35427461    -0.81300
Co79       Co  0.94778976  0.47526878  0.48017984     1.51500
Co80       Co  0.09535055  0.49822178  0.47532179     1.51700
Co81       Co  0.03835714  0.52485267  0.41540334     1.51600
Co82       Co  0.02304467  0.53925386  0.56587417     1.51500
O83         O  0.01954302  0.51022134  0.49042810    -1.43200
C84         C  0.91883118  0.57077589  0.54842455     1.08400
C85         C  0.10500148  0.57664341  0.38075354     1.08500
C86         C  0.94085403  0.57493889  0.41382131     1.08400
C87         C  0.12199314  0.58516591  0.54951291     1.08400
C88         C  0.80009713  0.31997128  0.27295010     0.79100
N89         N  0.76763407  0.29048817  0.30335669    -0.79200
C90         C  0.71922722  0.27391590  0.28531586     0.81600
N91         N  0.70286142  0.28753221  0.23631150    -0.79100
C92         C  0.73436997  0.31688218  0.20496496     0.81600
N93         N  0.78281938  0.33337051  0.22386287    -0.80900
C94         C  0.78272316  0.68914018  0.29666172     0.79100
N95         N  0.75717369  0.73018351  0.32134491    -0.79200
C96         C  0.70937378  0.74694307  0.30331500     0.81600
N97         N  0.68698110  0.72292241  0.25979880    -0.79100
C98         C  0.71169936  0.68175490  0.23486775     0.81600
N99         N  0.75917326  0.66486212  0.25377950    -0.80900
C100        C  0.74879752  0.29561304  0.75399097     0.79100
N101        N  0.72241340  0.25764398  0.72430102    -0.79200
C102        C  0.74201073  0.23972906  0.67784909     0.81600
N103        N  0.78718854  0.26198629  0.65957954    -0.79100
C104        C  0.81453741  0.29956088  0.68915209     0.81600
N105        N  0.79476818  0.31594098  0.73597595    -0.80900
C106        C  0.34608480  0.76105941  0.28874943     0.79100
N107        N  0.36934509  0.73316463  0.24879271    -0.79200
C108        C  0.34795416  0.68607200  0.22948137     0.81600
N109        N  0.30332735  0.66657646  0.25107375    -0.79100
C110        C  0.28001969  0.69299815  0.29155063     0.81600
N111        N  0.30135668  0.74044623  0.30981120    -0.80900
C112        C  0.35440439  0.68466292  0.73438874     0.79100
N113        N  0.37897728  0.72963166  0.71705966    -0.79200
C114        C  0.35817198  0.75671669  0.67571222     0.81600
N115        N  0.31364284  0.73776011  0.65098625    -0.79100
C116        C  0.28929137  0.69258122  0.66764233     0.81600
N117        N  0.30965434  0.66607936  0.70949847    -0.80900
C118        C  0.30812576  0.30794663  0.75701631     0.79100
N119        N  0.33460746  0.27118936  0.72716501    -0.79200
C120        C  0.31785724  0.25823507  0.67731011     0.81600
N121        N  0.27533184  0.28330807  0.65634060    -0.79100
C122        C  0.24925396  0.32083871  0.68501301     0.81600
N123        N  0.26590171  0.33302602  0.73499923    -0.80900
C124        C  0.68014630  0.68382293  0.70528704     0.79100
N125        N  0.72159849  0.66014331  0.68128213    -0.79200
C126        C  0.74916837  0.68703738  0.64504117     0.81600
N127        N  0.73505975  0.73763290  0.63215339    -0.79100
C128        C  0.69342104  0.76201818  0.65505600     0.81600
N129        N  0.66582285  0.73451792  0.69159543    -0.80900
C130        C  0.31970843  0.23114488  0.27870576     0.79100
N131        N  0.28078668  0.26009279  0.30212322    -0.79200
C132        C  0.26764094  0.30972877  0.28434435     0.81600
N133        N  0.29425351  0.33075677  0.24366827    -0.79100
C134        C  0.33284462  0.30232528  0.21989341     0.81600
N135        N  0.34609221  0.25330492  0.23842221    -0.80900
C136        C  0.20756692  0.35265685  0.65934510    -0.07200
C137        C  0.16992428  0.32582728  0.62659434    -0.18400
C138        C  0.13172869  0.35470344  0.59821545     0.10000
C139        C  0.13096418  0.41137486  0.60329092    -0.07200
C140        C  0.16750862  0.43789539  0.63730293    -0.18400
C141        C  0.20650905  0.40953658  0.66413068     0.10000
S142        S  0.08345506  0.31913180  0.55695600    -0.33400
S143        S  0.25667931  0.44910967  0.69899489    -0.33400
H144        H  0.29913133  0.41757229  0.68165394     0.28000
H145        H  0.10378674  0.26709888  0.56413461     0.28000
H146        H  0.17086819  0.28225115  0.62298866     0.18600
H147        H  0.16800084  0.48160714  0.64030367     0.18600
C148        C  0.24561366  0.66840661  0.63601628    -0.07200
C149        C  0.19749460  0.65812943  0.66009922    -0.18400
C150        C  0.15512171  0.63453195  0.63162960     0.10000
C151        C  0.16110733  0.61975593  0.57809161    -0.07200
C152        C  0.20926941  0.63034837  0.55402825    -0.18400
C153        C  0.25150817  0.65437187  0.58229403     0.10000
S154        S  0.09589777  0.62027765  0.66664471    -0.33400
S155        S  0.31290378  0.66249976  0.54847200    -0.33400
H156        H  0.34584255  0.65030883  0.59172709     0.28000
H157        H  0.06481129  0.65093861  0.63223695     0.28000
H158        H  0.19295706  0.66843271  0.70140201     0.18600
H159        H  0.21471921  0.61781099  0.51340117     0.18600
C160        C  0.14393977  0.61280460  0.35557616    -0.07200
C161        C  0.17565046  0.64707396  0.38806417    -0.18400
C162        C  0.21981577  0.67410518  0.36873814     0.10000
C163        C  0.23174563  0.66931789  0.31470380    -0.07200
C164        C  0.19808740  0.63777730  0.28165297    -0.18400
C165        C  0.15545871  0.60880069  0.30134145     0.10000
S166        S  0.26175052  0.70935096  0.41635024    -0.33400
S167        S  0.12111264  0.56361541  0.25567743    -0.33400
H168        H  0.13147440  0.51772374  0.28582627     0.28000
H169        H  0.30869219  0.68662472  0.39760364     0.28000
H170        H  0.16792589  0.65040580  0.42971019     0.18600
H171        H  0.20644680  0.63355847  0.24017354     0.18600
C172        C  0.17009057  0.41587887  0.37557697    -0.07200
C173        C  0.15046274  0.36466595  0.36010556    -0.18400
C174        C  0.18089555  0.32895759  0.32988573     0.10000
C175        C  0.23184234  0.34496434  0.31435524    -0.07200
C176        C  0.25079559  0.39648281  0.32902475    -0.18400
C177        C  0.22087907  0.43186218  0.35927921     0.10000
S178        S  0.15235149  0.26416780  0.31191935    -0.33400
S179        S  0.25011174  0.49698838  0.37495240    -0.33400
H180        H  0.20254593  0.52488595  0.37095813     0.28000
H181        H  0.17767086  0.25893817  0.26342891     0.28000
H182        H  0.11161303  0.35207729  0.37233544     0.18600
H183        H  0.28984597  0.40915240  0.31736444     0.18600
C184        C  0.87637160  0.60404596  0.57143771    -0.07200
C185        C  0.82399768  0.59431274  0.55419345    -0.18400
C186        C  0.78195853  0.62230046  0.57642764     0.10000
C187        C  0.79207871  0.66017292  0.61752350    -0.07200
C188        C  0.84396855  0.67054902  0.63466893    -0.18400
C189        C  0.88615121  0.64314977  0.61216344     0.10000
S190        S  0.71617482  0.60725027  0.55146173    -0.33400
S191        S  0.95062411  0.65707788  0.64039720    -0.33400
H192        H  0.96853584  0.68114531  0.59434273     0.28000
H193        H  0.69571439  0.65917751  0.56006815     0.28000
H194        H  0.81568104  0.56480866  0.52306688     0.18600
H195        H  0.85155720  0.69936413  0.66663818     0.18600
C196        C  0.93140260  0.39955908  0.61637064    -0.07200
C197        C  0.92650290  0.34461543  0.60142816    -0.18400
C198        C  0.89192351  0.30964899  0.62674279     0.10000
C199        C  0.85986421  0.32999023  0.66734288    -0.07200
C200        C  0.86792849  0.38367872  0.68496623    -0.18400
C201        C  0.90313392  0.41851169  0.66047171     0.10000
S202        S  0.89105745  0.23978931  0.60548619    -0.33400
S203        S  0.90684914  0.48797814  0.68382218    -0.33400
H204        H  0.88143998  0.48059850  0.73182925     0.28000
H205        H  0.88228854  0.21958236  0.65588153     0.28000
H206        H  0.94905318  0.32883061  0.56879199     0.18600
H207        H  0.84404470  0.39982097  0.71628254     0.18600
C208        C  0.93610598  0.40083014  0.34595003    -0.07200
C209        C  0.91539395  0.35350461  0.36751145    -0.18400
C210        C  0.87480792  0.32355395  0.34239943     0.10000
C211        C  0.85118899  0.34239894  0.29525685    -0.07200
C212        C  0.87511319  0.38683223  0.27114793    -0.18400
C213        C  0.91810266  0.41492664  0.29497804     0.10000
S214        S  0.85618122  0.26142041  0.37295927    -0.33400
S215        S  0.94809876  0.46755830  0.25780576    -0.33400
H216        H  0.00000832  0.45493854  0.27381035     0.28000
H217        H  0.85007664  0.23246179  0.32498061     0.28000
H218        H  0.93021952  0.33984997  0.40519830     0.18600
H219        H  0.85972232  0.40070368  0.23376616     0.18600
C220        C  0.83125092  0.66607361  0.32158843    -0.07200
C221        C  0.84725943  0.68546954  0.37212321    -0.18400
C222        C  0.88555596  0.65894739  0.40231222     0.10000
C223        C  0.90731489  0.61074807  0.38252831    -0.07200
C224        C  0.89459844  0.59356908  0.33110666    -0.18400
C225        C  0.85853442  0.62135049  0.29977421     0.10000
S226        S  0.90199727  0.68693494  0.46660416    -0.33400
S227        S  0.85052612  0.59723564  0.23268437    -0.33400
H228        H  0.84951733  0.64933579  0.21174745     0.28000
H229        H  0.95341878  0.66646949  0.46993203     0.28000
H230        H  0.82862614  0.72063037  0.38939679     0.18600
H231        H  0.91310600  0.55776179  0.31517842     0.18600
C232        C  0.70993874  0.20233055  0.64433855    -0.07200
C233        C  0.69405376  0.21946297  0.59440238    -0.18400
C234        C  0.65549614  0.19098674  0.56444198     0.10000
C235        C  0.63308868  0.14311438  0.58451530    -0.07200
C236        C  0.65101559  0.12493589  0.63366721    -0.18400
C237        C  0.68917627  0.15375882  0.66351154     0.10000
S238        S  0.63216561  0.21995299  0.50361936    -0.33400
S239        S  0.70997631  0.12620839  0.72555088    -0.33400
H240        H  0.76087295  0.14938911  0.72647955     0.28000
H241        H  0.67117323  0.26038973  0.50036631     0.28000
H242        H  0.70949100  0.25727212  0.58039328     0.18600
H243        H  0.63498890  0.08801758  0.64923215     0.18600
C244        C  0.41692877  0.16924159  0.57230610    -0.07200
C245        C  0.36832150  0.14697397  0.58727576    -0.18400
C246        C  0.33515894  0.17466631  0.62182287     0.10000
C247        C  0.35118316  0.22546910  0.64275382    -0.07200
C248        C  0.39912411  0.24813386  0.62743481    -0.18400
C249        C  0.43213412  0.22078439  0.59274416     0.10000
S250        S  0.27336969  0.14285373  0.63779993    -0.33400
S251        S  0.49410225  0.25304261  0.57854519    -0.33400
H252        H  0.52431570  0.20683665  0.58838372     0.28000
H253        H  0.26803362  0.16798736  0.68741852     0.28000
H254        H  0.35613101  0.10749034  0.57222089     0.18600
H255        H  0.41105564  0.28759331  0.64284773     0.18600
C256        C  0.34015660  0.18093421  0.30275322    -0.07200
C257        C  0.33076343  0.17184942  0.35610045    -0.18400
C258        C  0.36030370  0.13428194  0.38444796     0.10000
C259        C  0.40270296  0.10718921  0.35996589    -0.07200
C260        C  0.40699802  0.11099238  0.30515477    -0.18400
C261        C  0.37524510  0.14602219  0.27621367     0.10000
S262        S  0.34234368  0.12462234  0.45167346    -0.33400
S263        S  0.38212487  0.14423993  0.20576421    -0.33400
H264        H  0.32903422  0.15719728  0.19489347     0.28000
H265        H  0.34888939  0.06828622  0.44913984     0.28000
H266        H  0.30192672  0.19581804  0.37675803     0.18600
H267        H  0.43663220  0.08794582  0.28468589     0.18600
C268        C  0.68522617  0.24013998  0.31836498    -0.07200
C269        C  0.70876943  0.19843055  0.34673776    -0.18400
C270        C  0.67840441  0.16220476  0.37511627     0.10000
C271        C  0.62263862  0.16660421  0.37438556    -0.07200
C272        C  0.59928512  0.20986793  0.34810429    -0.18400
C273        C  0.62986284  0.24687114  0.32071391     0.10000
S274        S  0.71360013  0.11209343  0.41214472    -0.33400
S275        S  0.59586866  0.30241755  0.29085118    -0.33400
H276        H  0.63694395  0.34016508  0.30033194     0.28000
H277        H  0.67901760  0.11276480  0.45468066     0.28000
H278        H  0.75120363  0.19336297  0.34612576     0.18600
H279        H  0.55676290  0.21438432  0.34805149     0.18600
C280        C  0.38691703  0.80160289  0.65200617    -0.07200
C281        C  0.35897272  0.84838438  0.63906742    -0.18400
C282        C  0.38059920  0.88743948  0.60652726     0.10000
C283        C  0.43076408  0.87824619  0.58468727    -0.07200
C284        C  0.45979491  0.83303640  0.60076317    -0.18400
C285        C  0.43897627  0.79520575  0.63470777     0.10000
S286        S  0.34129802  0.94650662  0.59465438    -0.33400
S287        S  0.47806895  0.73718785  0.65208473    -0.33400
H288        H  0.52591968  0.75498152  0.63093369     0.28000
H289        H  0.35671703  0.95474944  0.54299762     0.28000
H290        H  0.31922747  0.85367952  0.65319340     0.18600
H291        H  0.49919263  0.82693338  0.58604561     0.18600
C292        C  0.62129578  0.90562184  0.59501329    -0.07200
C293        C  0.66544868  0.88417852  0.57014961    -0.18400
C294        C  0.69300397  0.84066037  0.59082666     0.10000
C295        C  0.67479227  0.81577148  0.63707291    -0.07200
C296        C  0.63324555  0.84044214  0.66425379    -0.18400
C297        C  0.60644475  0.88502258  0.64406097     0.10000
S298        S  0.74922424  0.81860589  0.55403183    -0.33400
S299        S  0.55047183  0.91130816  0.67921307    -0.33400
H300        H  0.55376721  0.87702662  0.72249955     0.28000
H301        H  0.78351567  0.82091086  0.59833111     0.28000
H302        H  0.67766778  0.90045494  0.53307180     0.18600
H303        H  0.61990047  0.82317829  0.70042256     0.18600
C304        C  0.68010911  0.78801451  0.33320477    -0.07200
C305        C  0.70651143  0.83527028  0.35064703    -0.18400
C306        C  0.67947988  0.87693863  0.37626648     0.10000
C307        C  0.62441843  0.87186069  0.38352172    -0.07200
C308        C  0.59884008  0.82328096  0.36837168    -0.18400
C309        C  0.62609069  0.78119401  0.34427485     0.10000
S310        S  0.71781870  0.93453713  0.39957875    -0.33400
S311        S  0.58982966  0.71937159  0.33022396    -0.33400
H312        H  0.63242692  0.68503502  0.34139637     0.28000
H313        H  0.68959088  0.94200033  0.44615384     0.28000
H314        H  0.74835010  0.83999903  0.34377786     0.18600
H315        H  0.55695974  0.81807299  0.37474391     0.18600
C316        C  0.41780167  0.90488693  0.36228901    -0.07200
C317        C  0.43221100  0.88793792  0.31133234    -0.18400
C318        C  0.40861437  0.84320323  0.28546858     0.10000
C319        C  0.36976027  0.81246954  0.31114532    -0.07200
C320        C  0.35345311  0.83100237  0.36094933    -0.18400
C321        C  0.37600075  0.87683875  0.38606636     0.10000
S322        S  0.43015004  0.82885112  0.21959540    -0.33400
S323        S  0.34930527  0.89643629  0.44837123    -0.32400
H324        H  0.34873937  0.95178140  0.43705730     0.28000
H325        H  0.37848179  0.82209750  0.19888963     0.28000
H326        H  0.46325236  0.90909682  0.29130378     0.18600
H327        H  0.32296926  0.80936284  0.38120984     0.18600
C328        C  0.71315887  0.33719422  0.15390677    -0.07200
C329        C  0.73494739  0.38484114  0.13437728    -0.18400
C330        C  0.70997833  0.41328011  0.09382723     0.10000
C331        C  0.66107000  0.39379011  0.07199664    -0.07200
C332        C  0.64253115  0.34314230  0.08768809    -0.18400
C333        C  0.66814992  0.31442080  0.12746123     0.10000
S334        S  0.74039376  0.47571362  0.07362966    -0.33400
S335        S  0.64089256  0.24913800  0.14217287    -0.33400
H336        H  0.69027992  0.22552936  0.15255230     0.28000
H337        H  0.78564149  0.47431720  0.10659159     0.28000
H338        H  0.77024692  0.40183945  0.15315232     0.18600
H339        H  0.60662646  0.32623199  0.06986308     0.18600
C340        C  0.68432687  0.65218444  0.19104021    -0.07200
C341        C  0.65780282  0.68134969  0.15174343    -0.18400
C342        C  0.62897346  0.65489572  0.11084934     0.10000
C343        C  0.62662785  0.59788563  0.10907231    -0.07200
C344        C  0.65401608  0.56916164  0.14798667    -0.18400
C345        C  0.68206371  0.59526091  0.18882826     0.10000
S346        S  0.59498994  0.69607061  0.06366740    -0.33400
S347        S  0.71104492  0.55292969  0.23832965    -0.33400
H348        H  0.69530257  0.58553976  0.28104759     0.28000
H349        H  0.54932394  0.66339572  0.06034259     0.28000
H350        H  0.65905776  0.72504385  0.15326508     0.18600
H351        H  0.65305351  0.52546202  0.14721069     0.18600
C352        C  0.37069235  0.65656565  0.18373622    -0.07200
C353        C  0.33537422  0.63087747  0.14770295    -0.18400
C354        C  0.35299564  0.59928965  0.10516608     0.10000
C355        C  0.40798024  0.59320188  0.09768642    -0.07200
C356        C  0.44328983  0.62101122  0.13255091    -0.18400
C357        C  0.42551073  0.65174887  0.17549857     0.10000
S358        S  0.30407684  0.56619313  0.06249521    -0.33400
S359        S  0.47513606  0.68017639  0.22003294    -0.33400
H360        H  0.44838176  0.66662580  0.26589238     0.28000
H361        H  0.25936218  0.57903357  0.09200296     0.28000
H362        H  0.29340074  0.63528919  0.15325575     0.18600
H363        H  0.48548459  0.61705584  0.12780941     0.18600
C364        C  0.36538349  0.32787806  0.17965586    -0.07200
C365        C  0.42051623  0.32308210  0.18394336    -0.18400
C366        C  0.45399422  0.35312225  0.15231025     0.10000
C367        C  0.43190027  0.38894337  0.11560266    -0.07200
C368        C  0.37677679  0.39101287  0.10894444    -0.18400
C369        C  0.34339594  0.36064897  0.14020169     0.10000
S370        S  0.52459562  0.34503110  0.15921753    -0.33400
S371        S  0.27326617  0.36512411  0.12744852    -0.33400
H372        H  0.26167545  0.31184359  0.14169751     0.28000
H373        H  0.52318270  0.29910677  0.19071233     0.28000
H374        H  0.43746594  0.29757065  0.21377947     0.18600
H375        H  0.35946900  0.41758554  0.08014011     0.18600
C376        C  0.60365399  0.58606099  0.82009076    -0.07200
C377        C  0.60669214  0.64242581  0.82772257    -0.18400
C378        C  0.63034719  0.67570256  0.79090783     0.10000
C379        C  0.65028310  0.65268359  0.74415559    -0.07200
C380        C  0.64465319  0.59686779  0.73513054    -0.18400
C381        C  0.62227767  0.56317982  0.77233705     0.10000
S382        S  0.63758368  0.74627733  0.80820289    -0.33400
S383        S  0.62199245  0.49106823  0.75887559    -0.33400
H384        H  0.64268706  0.49219706  0.70803328     0.28000
H385        H  0.69032743  0.74996263  0.79221806     0.28000
H386        H  0.59261955  0.66063047  0.86380487     0.18600
H387        H  0.65945044  0.57930170  0.69907568     0.18600
C388        C  0.66675827  0.38681213  0.87297942    -0.07200
C389        C  0.65218550  0.33273704  0.86198376    -0.18400
C390        C  0.68026156  0.30035054  0.82669614     0.10000
C391        C  0.72359458  0.32250637  0.80000422    -0.07200
C392        C  0.74037299  0.37523159  0.81389222    -0.18400
C393        C  0.71312093  0.40744228  0.84994264     0.10000
S394        S  0.65871986  0.23122649  0.81829812    -0.33400
S395        S  0.73720014  0.47565841  0.86239687    -0.33400
H396        H  0.78615876  0.47036142  0.83776545     0.28000
H397        H  0.71037550  0.21097433  0.81569949     0.28000
H398        H  0.61784000  0.31551582  0.88035068     0.18600
H399        H  0.77365330  0.39277501  0.79428155     0.18600
C400        C  0.33083489  0.32661245  0.80932457    -0.07200
C401        C  0.37848101  0.30372547  0.82702256    -0.18400
C402        C  0.40885091  0.32730047  0.86835258     0.10000
C403        C  0.39239189  0.37669442  0.89176112    -0.07200
C404        C  0.34186875  0.39580782  0.87851978    -0.18400
C405        C  0.31026594  0.37038696  0.83928833     0.10000
S406        S  0.46861382  0.29369481  0.88959335    -0.33400
S407        S  0.24429145  0.39592551  0.83070519    -0.33400
H408        H  0.22113756  0.34429714  0.82442646     0.28000
H409        H  0.46781200  0.25199512  0.85121492     0.28000
H410        H  0.39322768  0.26803766  0.80709019     0.18600
H411        H  0.32713288  0.43186623  0.89799803     0.18600
C412        C  0.43040289  0.58824210  0.85167429    -0.07200
C413        C  0.43939355  0.57886010  0.79786011    -0.18400
C414        C  0.41436645  0.60918397  0.75922896     0.10000
C415        C  0.38064643  0.65148049  0.77413397    -0.07200
C416        C  0.37254817  0.66242184  0.82759413    -0.18400
C417        C  0.39628066  0.63080495  0.86649110     0.10000
S418        S  0.42794195  0.59254835  0.69150442    -0.33400
S419        S  0.37888760  0.64508003  0.93356938    -0.33400
H420        H  0.36392028  0.59134834  0.94259103     0.28000
H421        H  0.37551118  0.59690963  0.67317623     0.28000
H422        H  0.46564638  0.54692999  0.78545715     0.18600
H423        H  0.34647853  0.69486561  0.83902032     0.18600
loop_ 
_geom_bond_atom_site_label_1 
_geom_bond_atom_site_label_2 
_geom_bond_distance 
_geom_bond_site_symmetry_2 
_ccdc_geom_bond_type 
O1            C9   1.278       .  A
O1          Co21   2.017       .  S
O2           C10   1.263       .  A
O2          Co22   1.980       .  S
O3           C11   1.268       .  A
O3          Co23   1.894   1_554  S
O4           C12   1.269       .  A
O4          Co24   1.975       .  S
O5           C11   1.296       .  A
O5          Co22   2.109       .  S
O6           C12   1.273       .  A
O6          Co21   2.014       .  S
O7           C10   1.265       .  A
O7          Co24   1.993   1_554  S
O8            C9   1.270       .  A
O8          Co23   1.974       .  S
C9          C412   1.486       .  S
C10         C343   1.482       .  S
C11         C355   1.497       .  S
C12         C376   1.490       .  S
O13          C26   1.263       .  A
O13         Co21   1.967       .  S
O14          C27   1.264       .  A
O14         Co22   1.886       .  S
O15          C28   1.269       .  A
O15         Co23   2.021       .  S
O16          C29   1.276       .  A
O16         Co24   2.022   1_554  S
O17          C29   1.272       .  A
O17         Co22   1.976       .  S
O18          C28   1.257       .  A
O18         Co21   1.967       .  S
O19          C26   1.270       .  A
O19         Co24   2.014       .  S
O20          C27   1.295       .  A
O20         Co23   2.110   1_554  S
Co21         O25   2.008       .  S
Co22         O25   1.976   1_554  S
Co23         O25   2.009       .  S
Co24         O25   2.037       .  S
C26         C388   1.491       .  S
C27         C367   1.477       .  S
C28         C403   1.494       .  S
C29         C331   1.495       .  S
O30          C38   1.268       .  A
O30         Co50   1.994       .  S
O31          C39   1.242       .  A
O31         Co51   1.955       .  S
O32          C40   1.262       .  A
O32         Co52   1.974       .  S
O33          C41   1.248       .  A
O33         Co53   1.988   1_565  S
O34          C40   1.272       .  A
O34         Co51   2.018       .  S
O35          C41   1.244       .  A
O35         Co50   1.961       .  S
O36          C39   1.256       .  A
O36         Co53   2.004       .  S
O37          C38   1.267       .  A
O37         Co52   1.984   1_565  S
C38         C307   1.478       .  S
C39         C235   1.485       .  S
C40         C271   1.483       .  S
C41         C292   1.478       .  S
O42          C55   1.269       .  A
O42         Co50   1.868       .  S
O43          C56   1.258       .  A
O43         Co51   1.977       .  S
O44          C57   1.266       .  A
O44         Co52   2.002   1_565  S
O45          C58   1.296       .  A
O45         Co53   2.069       .  S
O46          C58   1.271       .  A
O46         Co51   1.898       .  S
O47          C57   1.263       .  A
O47         Co50   1.987       .  S
O48          C55   1.300       .  A
O48         Co53   2.081   1_565  S
O49          C56   1.271       .  A
O49         Co52   2.018       .  S
Co50         O54   1.909   1_565  S
Co51         O54   1.920       .  S
Co52         O54   2.083       .  S
Co53         O54   2.262       .  S
C55         C283   1.480       .  S
C56         C259   1.493       .  S
C57         C316   1.500       .  S
C58         C244   1.483       .  S
O59          C67   1.256       .  A
O59         Co79   1.970       .  S
O60          C68   1.269       .  A
O60         Co80   1.973       .  S
O61          C69   1.299       .  A
O61         Co81   2.119       .  S
O62          C70   1.273       .  A
O62         Co82   2.026   1_655  S
O63          C69   1.263       .  A
O63         Co80   1.884       .  S
O64          C70   1.260       .  A
O64         Co79   1.962       .  S
O65          C68   1.274       .  A
O65         Co82   2.006       .  S
O66          C67   1.265       .  A
O66         Co81   2.028   1_655  S
C67         C208   1.499       .  S
C68         C139   1.471       .  S
C69         C172   1.477       .  S
C70         C196   1.492       .  S
O71          C84   1.275       .  A
O71         Co79   2.025       .  S
O72          C85   1.297       .  A
O72         Co80   2.107       .  S
O73          C86   1.266       .  A
O73         Co81   1.966   1_655  S
O74          C87   1.260       .  A
O74         Co82   1.980       .  S
O75          C87   1.262       .  A
O75         Co80   1.996       .  S
O76          C86   1.279       .  A
O76         Co79   2.028       .  S
O77          C84   1.260       .  A
O77         Co82   1.956   1_655  S
O78          C85   1.266       .  A
O78         Co81   1.892       .  S
Co79         O83   2.016   1_655  S
Co80         O83   1.989       .  S
Co81         O83   2.016       .  S
Co82         O83   2.035       .  S
C84         C184   1.483       .  S
C85         C160   1.491       .  S
C86         C223   1.468       .  S
C87         C151   1.474       .  S
C88         C211   1.500       .  S
C88          N89   1.360       .  A
C88          N93   1.363       .  A
N89          C90   1.357       .  A
C90         C268   1.482       .  S
C90          N91   1.356       .  A
N91          C92   1.358       .  A
C92         C328   1.494       .  S
C92          N93   1.364       .  A
C94         C220   1.494       .  S
C94          N95   1.360       .  A
C94          N99   1.359       .  A
N95          C96   1.357       .  A
C96         C304   1.472       .  S
C96          N97   1.357       .  A
N97          C98   1.355       .  A
C98         C340   1.478       .  S
C98          N99   1.358       .  A
C100        C391   1.492       .  S
C100        N101   1.357       .  A
C100        N105   1.357       .  A
N101        C102   1.359       .  A
C102        C232   1.473       .  S
C102        N103   1.361       .  A
N103        C104   1.360       .  A
C104        C199   1.492       .  S
C104        N105   1.357       .  A
C106        C319   1.500       .  S
C106        N107   1.364       .  A
C106        N111   1.363       .  A
N107        C108   1.361       .  A
C108        C352   1.490       .  S
C108        N109   1.357       .  A
N109        C110   1.357       .  A
C110        C163   1.490       .  S
C110        N111   1.359       .  A
C112        C415   1.468       .  S
C112        N113   1.358       .  A
C112        N117   1.359       .  A
N113        C114   1.359       .  A
C114        C280   1.471       .  S
C114        N115   1.355       .  A
N115        C116   1.354       .  A
C116        C148   1.470       .  S
C116        N117   1.357       .  A
C118        C400   1.501       .  S
C118        N119   1.363       .  A
C118        N123   1.358       .  A
N119        C120   1.360       .  A
C120        C247   1.469       .  S
C120        N121   1.353       .  A
N121        C122   1.355       .  A
C122        C136   1.473       .  S
C122        N123   1.358       .  A
C124        C379   1.483       .  S
C124        N125   1.357       .  A
C124        N129   1.361       .  A
N125        C126   1.352       .  A
C126        C187   1.462       .  S
C126        N127   1.352       .  A
N127        C128   1.356       .  A
C128        C295   1.494       .  S
C128        N129   1.365       .  A
C130        C256   1.490       .  S
C130        N131   1.364       .  A
C130        N135   1.358       .  A
N131        C132   1.361       .  A
C132        C175   1.477       .  S
C132        N133   1.358       .  A
N133        C134   1.355       .  A
C134        C364   1.477       .  S
C134        N135   1.355       .  A
C136        C137   1.406       .  A
C136        C141   1.413       .  A
C137        C138   1.404       .  A
C137        H146   1.083       .  S
C138        C139   1.408       .  A
C138        S142   1.806       .  S
C139        C140   1.403       .  A
C140        C141   1.392       .  A
C140        H147   1.084       .  S
C141        S143   1.805       .  S
S142        H145   1.407       .  S
S143        H144   1.407       .  S
C148        C149   1.399       .  A
C148        C153   1.414       .  A
C149        C150   1.399       .  A
C149        H158   1.085       .  S
C150        C151   1.414       .  A
C150        S154   1.797       .  S
C151        C152   1.401       .  A
C152        C153   1.398       .  A
C152        H159   1.085       .  S
C153        S155   1.805       .  S
S154        H157   1.404       .  S
S155        H156   1.406       .  S
C160        C161   1.407       .  A
C160        C165   1.418       .  A
C161        C162   1.402       .  A
C161        H170   1.083       .  S
C162        C163   1.416       .  A
C162        S166   1.801       .  S
C163        C164   1.406       .  A
C164        C165   1.399       .  A
C164        H171   1.084       .  S
C165        S167   1.802       .  S
S166        H169   1.407       .  S
S167        H168   1.409       .  S
C172        C173   1.405       .  A
C172        C177   1.416       .  A
C173        C174   1.405       .  A
C173        H182   1.084       .  S
C174        C175   1.413       .  A
C174        S178   1.802       .  S
C175        C176   1.401       .  A
C176        C177   1.394       .  A
C176        H183   1.084       .  S
C177        S179   1.804       .  S
S178        H181   1.406       .  S
S179        H180   1.397       .  S
C184        C185   1.405       .  A
C184        C189   1.420       .  A
C185        C186   1.398       .  A
C185        H194   1.083       .  S
C186        C187   1.408       .  A
C186        S190   1.803       .  S
C187        C188   1.396       .  A
C188        C189   1.397       .  A
C188        H195   1.084       .  S
C189        S191   1.798       .  S
S190        H193   1.406       .  S
S191        H192   1.408       .  S
C196        C197   1.410       .  A
C196        C201   1.417       .  A
C197        C198   1.403       .  A
C197        H206   1.085       .  S
C198        C199   1.414       .  A
C198        S202   1.803       .  S
C199        C200   1.407       .  A
C200        C201   1.401       .  A
C200        H207   1.082       .  S
C201        S203   1.810       .  S
S202        H205   1.407       .  S
S203        H204   1.407       .  S
C208        C209   1.408       .  A
C208        C213   1.417       .  A
C209        C210   1.398       .  A
C209        H218   1.084       .  S
C210        C211   1.418       .  A
C210        S214   1.804       .  S
C211        C212   1.410       .  A
C212        C213   1.407       .  A
C212        H219   1.084       .  S
C213        S215   1.800       .  S
S214        H217   1.408       .  S
S215        H216   1.407   1_655  S
C220        C221   1.413       .  A
C220        C225   1.420       .  A
C221        C222   1.401       .  A
C221        H230   1.084       .  S
C222        C223   1.407       .  A
C222        S226   1.802       .  S
C223        C224   1.397       .  A
C224        C225   1.395       .  A
C224        H231   1.082       .  S
C225        S227   1.803       .  S
S226        H229   1.403       .  S
S227        H228   1.407       .  S
C232        C233   1.400       .  A
C232        C237   1.410       .  A
C233        C234   1.402       .  A
C233        H242   1.083       .  S
C234        C235   1.420       .  A
C234        S238   1.809       .  S
C235        C236   1.405       .  A
C236        C237   1.398       .  A
C236        H243   1.084       .  S
C237        S239   1.803       .  S
S238        H241   1.406       .  S
S239        H240   1.406       .  S
C244        C245   1.408       .  A
C244        C249   1.416       .  A
C245        C246   1.401       .  A
C245        H254   1.083       .  S
C246        C247   1.410       .  A
C246        S250   1.804       .  S
C247        C248   1.400       .  A
C248        C249   1.397       .  A
C248        H255   1.084       .  S
C249        S251   1.802       .  S
S250        H253   1.405       .  S
S251        H252   1.406       .  S
C256        C257   1.405       .  A
C256        C261   1.417       .  A
C257        C258   1.401       .  A
C257        H266   1.083       .  S
C258        C259   1.419       .  A
C258        S262   1.799       .  S
C259        C260   1.406       .  A
C260        C261   1.398       .  A
C260        H267   1.082       .  S
C261        S263   1.804       .  S
S262        H265   1.408       .  S
S263        H264   1.408       .  S
C268        C269   1.403       .  A
C268        C273   1.415       .  A
C269        C270   1.399       .  A
C269        H278   1.083       .  S
C270        C271   1.417       .  A
C270        S274   1.804       .  S
C271        C272   1.404       .  A
C272        C273   1.402       .  A
C272        H279   1.083       .  S
C273        S275   1.803       .  S
S274        H277   1.406       .  S
S275        H276   1.407       .  S
C280        C281   1.405       .  A
C280        C285   1.408       .  A
C281        C282   1.402       .  A
C281        H290   1.084       .  S
C282        C283   1.415       .  A
C282        S286   1.804       .  S
C283        C284   1.408       .  A
C284        C285   1.396       .  A
C284        H291   1.084       .  S
C285        S287   1.810       .  S
S286        H289   1.397       .  S
S287        H288   1.408       .  S
C292        C293   1.399       .  A
C292        C297   1.415       .  A
C293        C294   1.396       .  A
C293        H302   1.084       .  S
C294        C295   1.423       .  A
C294        S298   1.802       .  S
C295        C296   1.408       .  A
C296        C297   1.402       .  A
C296        H303   1.082       .  S
C297        S299   1.810       .  S
S298        H301   1.408       .  S
S299        H300   1.406       .  S
C304        C305   1.403       .  A
C304        C309   1.412       .  A
C305        C306   1.401       .  A
C305        H314   1.083       .  S
C306        C307   1.415       .  A
C306        S310   1.803       .  S
C307        C308   1.405       .  A
C308        C309   1.394       .  A
C308        H315   1.083       .  S
C309        S311   1.805       .  S
S310        H313   1.406       .  S
S311        H312   1.407       .  S
C316        C317   1.410       .  A
C316        C321   1.415       .  A
C317        C318   1.400       .  A
C317        H326   1.084       .  S
C318        C319   1.418       .  A
C318        S322   1.802       .  S
C319        C320   1.410       .  A
C320        C321   1.403       .  A
C320        H327   1.082       .  S
C321        S323   1.795       .  S
S322        H325   1.407       .  S
S323        H324   1.408       .  S
C328        C329   1.404       .  A
C328        C333   1.418       .  A
C329        C330   1.404       .  A
C329        H338   1.083       .  S
C330        C331   1.423       .  A
C330        S334   1.812       .  S
C331        C332   1.405       .  A
C332        C333   1.400       .  A
C332        H339   1.085       .  S
C333        S335   1.804       .  S
S334        H337   1.406       .  S
S335        H336   1.407       .  S
C340        C341   1.408       .  A
C340        C345   1.411       .  A
C341        C342   1.406       .  A
C341        H350   1.083       .  S
C342        C343   1.414       .  A
C342        S346   1.801       .  S
C343        C344   1.406       .  A
C344        C345   1.391       .  A
C344        H351   1.083       .  S
C345        S347   1.804       .  S
S346        H349   1.406       .  S
S347        H348   1.407       .  S
C352        C353   1.406       .  A
C352        C357   1.414       .  A
C353        C354   1.405       .  A
C353        H362   1.081       .  S
C354        C355   1.418       .  A
C354        S358   1.810       .  S
C355        C356   1.411       .  A
C356        C357   1.403       .  A
C356        H363   1.083       .  S
C357        S359   1.803       .  S
S358        H361   1.407       .  S
S359        H360   1.407       .  S
C364        C365   1.404       .  A
C364        C369   1.412       .  A
C365        C366   1.402       .  A
C365        H374   1.082       .  S
C366        C367   1.412       .  A
C366        S370   1.806       .  S
C367        C368   1.404       .  A
C368        C369   1.399       .  A
C368        H375   1.084       .  S
C369        S371   1.803       .  S
S370        H373   1.406       .  S
S371        H372   1.407       .  S
C376        C377   1.408       .  A
C376        C381   1.421       .  A
C377        C378   1.402       .  A
C377        H386   1.083       .  S
C378        C379   1.413       .  A
C378        S382   1.802       .  S
C379        C380   1.403       .  A
C380        C381   1.401       .  A
C380        H387   1.082       .  S
C381        S383   1.813       .  S
S382        H385   1.407       .  S
S383        H384   1.406       .  S
C388        C389   1.408       .  A
C388        C393   1.420       .  A
C389        C390   1.400       .  A
C389        H398   1.085       .  S
C390        C391   1.416       .  A
C390        S394   1.801       .  S
C391        C392   1.407       .  A
C392        C393   1.400       .  A
C392        H399   1.081       .  S
C393        S395   1.812       .  S
S394        H397   1.407       .  S
S395        H396   1.407       .  S
C400        C401   1.407       .  A
C400        C405   1.421       .  A
C401        C402   1.404       .  A
C401        H410   1.083       .  S
C402        C403   1.419       .  A
C402        S406   1.811       .  S
C403        C404   1.405       .  A
C404        C405   1.402       .  A
C404        H411   1.085       .  S
C405        S407   1.802       .  S
S406        H409   1.406       .  S
S407        H408   1.408       .  S
C412        C413   1.407       .  A
C412        C417   1.419       .  A
C413        C414   1.395       .  A
C413        H422   1.084       .  S
C414        C415   1.408       .  A
C414        S418   1.804       .  S
C415        C416   1.401       .  A
C416        C417   1.403       .  A
C416        H423   1.083       .  S
C417        S419   1.800       .  S
S418        H421   1.404       .  S
S419        H420   1.407       .  S
