geometry optimzed in LAMMPS
_audit_creation_date              2020-12-01 
_audit_creation_method            'lammps2cif' 
_symmetry_space_group_name_H-M    'P1' 
_symmetry_Int_Tables_number       1 
_symmetry_cell_setting            triclinic 
loop_ 
_symmetry_equiv_pos_as_xyz 
  x,y,z 
_cell_length_a                    58.12727341 
_cell_length_b                    57.00757988376483 
_cell_length_c                    32.042207290611024 
_cell_angle_alpha                 90.01158317385917 
_cell_angle_beta                  89.89182051039704 
_cell_angle_gamma                 132.86054897980537 
loop_ 
_atom_site_label 
_atom_site_type_symbol 
_atom_site_fract_x 
_atom_site_fract_y 
_atom_site_fract_z 
_atom_site_charge 
N1          N  0.46274076  0.93864079  0.51553180    -0.02700
C2          C  0.47855963  0.93991787  0.05219968    -0.00100
C3          C  0.50578473  0.94706559  0.04196341    -0.23000
C4          C  0.50339953  0.94578968  0.49158354    -0.23200
C5          C  0.47733526  0.94074999  0.48022205    -0.00200
H6          H  0.51923647  0.94503612  0.06224509     0.13600
H7          H  0.51749080  0.94450498  0.47162689     0.13600
N8          N  0.48351331  0.47375594  0.01969736    -0.02700
C9          C  0.49041648  0.49347088  0.48499184    -0.00100
C10         C  0.51385043  0.52453791  0.99826707    -0.23000
C11         C  0.51543169  0.52471474  0.04090824    -0.23200
C12         C  0.49519951  0.49312258  0.05401018    -0.00200
H13         H  0.51959933  0.54540022  0.47894440     0.13600
H14         H  0.52568265  0.54544274  0.06001326     0.13600
N15         N  0.42206499  0.84640888  0.26709710    -0.35800
N16         N  0.40341426  0.80016395  0.20470592    -0.56400
N17         N  0.39240992  0.75781786  0.27000916    -0.35800
N18         N  0.40845693  0.80315702  0.33245126    -0.56400
C19         C  0.42112522  0.85955560  0.23288947     0.27800
C20         C  0.42059646  0.85963361  0.30069250     0.27800
C21         C  0.37648087  0.73732996  0.23770459     0.27800
C22         C  0.38188883  0.73993045  0.30507699     0.27800
C23         C  0.41851845  0.82621524  0.18001856     0.36400
C24         C  0.39884133  0.77753528  0.18144714     0.36400
C25         C  0.42219328  0.82977249  0.35514327     0.36400
C26         C  0.40875796  0.78382670  0.35632408     0.36400
C27         C  0.41876539  0.88124611  0.24475526    -0.21100
C28         C  0.41839267  0.88127064  0.28772359    -0.21100
C29         C  0.35573964  0.70607752  0.25235564    -0.21100
C30         C  0.35909072  0.70772349  0.29496830    -0.21100
C31         C  0.42374226  0.82006138  0.14091017    -0.22100
C32         C  0.41071673  0.78896986  0.14162975    -0.22100
C33         C  0.43132132  0.82735641  0.39366556    -0.22100
C34         C  0.42273271  0.79815947  0.39441514    -0.22100
C35         C  0.42512961  0.85429026  0.19160582    -0.17500
C36         C  0.42479330  0.85525004  0.34234823    -0.17500
C37         C  0.39336486  0.75207226  0.34566900    -0.17500
C38         C  0.38227858  0.74610259  0.19521324    -0.17500
H39         H  0.41815174  0.89604201  0.22457320     0.15400
H40         H  0.41758604  0.89622178  0.30719870     0.15400
H41         H  0.34012412  0.68431277  0.23420044     0.15400
H42         H  0.34632955  0.68748161  0.31603319     0.15400
H43         H  0.43524869  0.83600754  0.11432997     0.13700
H44         H  0.41017516  0.77628375  0.11592121     0.13700
H45         H  0.44261961  0.84461873  0.41881003     0.13700
H46         H  0.42583055  0.78832189  0.42027306     0.13700
H47         H  0.42798693  0.83282190  0.26741254     0.27000
H48         H  0.41181520  0.78230087  0.26784671     0.27000
O49         O  0.24530101  0.56292905  0.04792126    -0.84500
O50         O  0.30173538  0.62057685  0.07385990    -0.81600
C51         C  0.33087719  0.64283372  0.07943357     0.98900
O52         O  0.35000414  0.64462336  0.05697593    -0.81600
O53         O  0.34296295  0.59205839  0.07137299    -0.84300
C54         C  0.33019000  0.56321494  0.07224705     1.03500
O55         O  0.30824887  0.54327984  0.04717237    -0.77000
O56         O  0.25698743  0.53545927  0.06791213    -0.77200
C57         C  0.24019069  0.54193599  0.07136814     1.03400
O58         O  0.26825762  0.58646474  0.46447354    -0.84500
O59         O  0.32358016  0.64480378  0.49199253    -0.81600
C60         C  0.34415958  0.65201194  0.46671607     0.98900
O61         O  0.35213669  0.63620395  0.46679519    -0.81600
O62         O  0.34756056  0.58499224  0.47950864    -0.84200
C63         C  0.32702855  0.56175618  0.45585030     1.03400
O64         O  0.29836128  0.54680497  0.46018358    -0.77000
O65         O  0.24635732  0.53763604  0.48015233    -0.77200
C66         C  0.24673496  0.55665206  0.45884659     1.03400
Cr67       Cr  0.28414320  0.60067574  0.01860304     1.93700
Cr68       Cr  0.34414324  0.61236495  0.02001078     1.93200
Cr69       Cr  0.27912735  0.54361930  0.01464834     1.39100
O70         O  0.30257928  0.58560085  0.01772462    -1.22300
N71         N  0.42225441  0.48815106  0.26727917    -0.35800
N72         N  0.39914691  0.50236276  0.20129185    -0.56400
N73         N  0.37434985  0.51654852  0.26464945    -0.35800
N74         N  0.39419602  0.49889534  0.33062450    -0.56400
C75         C  0.42605155  0.47657496  0.23385965     0.27800
C76         C  0.42531154  0.47683992  0.30175628     0.27800
C77         C  0.36204072  0.51749336  0.22969694     0.27800
C78         C  0.35797256  0.51390579  0.29737707     0.27800
C79         C  0.41730061  0.50031207  0.17842137     0.36400
C80         C  0.39360232  0.51756918  0.17723816     0.36400
C81         C  0.41355524  0.49932513  0.35471350     0.36400
C82         C  0.38591407  0.51209807  0.35363683     0.36400
C83         C  0.43129097  0.45741904  0.24723621    -0.21100
C84         C  0.43073397  0.45750129  0.29020171    -0.21100
C85         C  0.33734897  0.51510225  0.24026432    -0.21100
C86         C  0.33477199  0.51281311  0.28304166    -0.21100
C87         C  0.42285150  0.51380190  0.13934290    -0.22100
C88         C  0.40784106  0.52475504  0.13862415    -0.22100
C89         C  0.41724811  0.51256602  0.39335168    -0.22100
C90         C  0.39947967  0.52034768  0.39277163    -0.22100
C91         C  0.42809555  0.48555316  0.19198549    -0.17500
C92         C  0.42646966  0.48628052  0.34302687    -0.17500
C93         C  0.36599840  0.51648286  0.33975271    -0.17500
C94         C  0.37436913  0.52335637  0.18900798    -0.17500
H95         H  0.43586517  0.44536493  0.22800330     0.15400
H96         H  0.43481173  0.44551320  0.31061483     0.15400
H97         H  0.32318402  0.51577476  0.21939343     0.15400
H98         H  0.31835941  0.51153329  0.30158718     0.15400
H99         H  0.43634779  0.51563034  0.11401176     0.13700
H100        H  0.40735562  0.53653188  0.11262847     0.13700
H101        H  0.43133494  0.51636534  0.41931352     0.13700
H102        H  0.39721128  0.53128941  0.41800560     0.13700
H103        H  0.42222487  0.50632384  0.26682532     0.27000
H104        H  0.39547653  0.52221371  0.26632505     0.27000
N105        N  0.13554347  0.49256883  0.26863562    -0.35800
N106        N  0.08888695  0.46629698  0.20446491    -0.56400
N107        N  0.04815970  0.46205221  0.26283689    -0.35800
N108        N  0.09562103  0.49042054  0.32696475    -0.56400
C109        C  0.15309416  0.50021687  0.23426680     0.27800
C110        C  0.15563307  0.51046502  0.30045214     0.27800
C111        C  0.03579583  0.45985185  0.22579816     0.27800
C112        C  0.03902390  0.47202813  0.29094310     0.27800
C113        C  0.10941311  0.46691601  0.18334315     0.36400
C114        C  0.06271577  0.44952510  0.18093295     0.36400
C115        C  0.11694229  0.49634467  0.35387894     0.36400
C116        C  0.07108336  0.48086569  0.35028494     0.36400
C117        C  0.18468562  0.52298080  0.24464205    -0.21100
C118        C  0.18625780  0.52909289  0.28650504    -0.21100
C119        C  0.01913263  0.46900930  0.23028697    -0.21100
C120        C  0.02088246  0.47641632  0.27164387    -0.21100
C121        C  0.09601412  0.44989836  0.14644262    -0.22100
C122        C  0.06631572  0.43875838  0.14496602    -0.22100
C123        C  0.10612234  0.49084530  0.39449616    -0.22100
C124        C  0.07689005  0.48068206  0.39222746    -0.22100
C125        C  0.14137712  0.48655786  0.19411937    -0.17500
C126        C  0.14692688  0.50886525  0.34225619    -0.17500
C127        C  0.04483498  0.47486885  0.33406751    -0.17500
C128        C  0.03812900  0.44855429  0.18847372    -0.17500
H129        H  0.20465163  0.53394808  0.22435640     0.15400
H130        H  0.20759553  0.54550086  0.30451995     0.15400
H131        H  0.00738360  0.47061756  0.20600699     0.15400
H132        H  0.01009929  0.48415712  0.28591643     0.15400
H133        H  0.10702632  0.44706915  0.12232200     0.13700
H134        H  0.04991641  0.42572647  0.11938708     0.13700
H135        H  0.11811777  0.49401589  0.42278663     0.13700
H136        H  0.06189363  0.47427654  0.41857896     0.13700
H137        H  0.11133749  0.47404700  0.27142591     0.27000
H138        H  0.05912355  0.45375917  0.26952751     0.27000
N139        N  0.96818183  0.44053717  0.01588356    -0.02700
C140        C  0.97380698  0.44205085  0.47386339    -0.00100
C141        C  0.95681090  0.39804711  0.98579372    -0.23000
C142        C  0.95274506  0.39264411  0.02764660    -0.23200
C143        C  0.96200987  0.41983895  0.04601179    -0.00200
H144        H  0.97150331  0.40305686  0.45554217     0.13600
H145        H  0.94935862  0.37359764  0.04312933     0.13600
N146        N  0.96254439  0.46121764  0.02075689    -0.02700
C147        C  0.96311632  0.48743697  0.49161860    -0.00100
C148        C  0.97735597  0.50733174  0.00021346    -0.23000
C149        C  0.98443428  0.50989850  0.04176559    -0.23200
C150        C  0.97065313  0.47963178  0.05522783    -0.00200
H151        H  0.96376164  0.52649281  0.49716131     0.13600
H152        H  0.99124994  0.52912719  0.06160076     0.13600
N153        N  0.46832826  0.44091266  0.01896416    -0.02700
C154        C  0.45443875  0.42199047  0.48240993    -0.00100
C155        C  0.43845148  0.38994386  0.99843197    -0.23000
C156        C  0.44052058  0.39052343  0.04095488    -0.23200
C157        C  0.46023569  0.42215012  0.05280436    -0.00200
H158        H  0.42438632  0.36974678  0.47591881     0.13600
H159        H  0.43278261  0.37067015  0.06025281     0.13600
N160        N  0.78569358  0.39430171  0.27033185    -0.35800
N161        N  0.83457933  0.42367925  0.33265814    -0.56400
N162        N  0.87650360  0.43374132  0.26894317    -0.35800
N163        N  0.82813528  0.40702925  0.20635058    -0.56400
C164        C  0.77247344  0.39702628  0.30230076     0.27800
C165        C  0.76882287  0.38755856  0.23582493     0.27800
C166        C  0.89666760  0.45037358  0.30122115     0.27800
C167        C  0.89380703  0.44439803  0.23342453     0.27800
C168        C  0.81015549  0.41216561  0.35797315     0.36400
C169        C  0.85780751  0.43198156  0.35772219     0.36400
C170        C  0.80112844  0.38794972  0.18437628     0.36400
C171        C  0.84967413  0.41051123  0.18307024     0.36400
C172        C  0.74677530  0.39175758  0.28809597    -0.21100
C173        C  0.74458650  0.38599850  0.24601224    -0.21100
C174        C  0.92718901  0.47126697  0.28611587    -0.21100
C175        C  0.92533454  0.46835580  0.24339883    -0.21100
C176        C  0.81811352  0.41402633  0.39926568    -0.22100
C177        C  0.84833507  0.42686028  0.39921869    -0.22100
C178        C  0.80543611  0.37916568  0.14698441    -0.22100
C179        C  0.83620421  0.39339674  0.14619247    -0.22100
C180        C  0.78095589  0.40074218  0.34456246    -0.17500
C181        C  0.77345638  0.38066262  0.19605521    -0.17500
C182        C  0.88199030  0.43157449  0.19275455    -0.17500
C183        C  0.88809762  0.44599251  0.34395656    -0.17500
H184        H  0.73093515  0.39154660  0.30631088     0.15400
H185        H  0.72674109  0.38058636  0.22547300     0.15400
H186        H  0.94876786  0.48706320  0.30365724     0.15400
H187        H  0.94518937  0.48190039  0.22231306     0.15400
H188        H  0.80379651  0.40726384  0.42664604     0.13700
H189        H  0.86172852  0.43219552  0.42694295     0.13700
H190        H  0.78834811  0.36451064  0.12254258     0.13700
H191        H  0.84751913  0.39181852  0.12098495     0.13700
H192        H  0.80240116  0.39272025  0.27298945     0.27000
H193        H  0.85262690  0.41380608  0.27173227     0.27000
N194        N  0.55527050  0.37641785  0.27123595    -0.35800
N195        N  0.54035996  0.40121547  0.33492920    -0.56400
N196        N  0.52509453  0.42344128  0.26917839    -0.35800
N197        N  0.54315321  0.40180056  0.20565437    -0.56400
C198        C  0.56670563  0.37390491  0.30587144     0.27800
C199        C  0.56784663  0.37392179  0.23792270     0.27800
C200        C  0.52296981  0.43627899  0.30271939     0.27800
C201        C  0.52518934  0.43720594  0.23479240     0.27800
C202        C  0.54289890  0.38371994  0.35935977     0.36400
C203        C  0.52558679  0.40751900  0.35804720     0.36400
C204        C  0.54597051  0.38410928  0.18223904     0.36400
C205        C  0.52927560  0.40842265  0.18116528     0.36400
C206        C  0.58671221  0.36966115  0.29442579    -0.21100
C207        C  0.58730523  0.36951172  0.25155926    -0.21100
C208        C  0.52203170  0.45877940  0.28956819    -0.21100
C209        C  0.52357262  0.45947675  0.24661378    -0.21100
C210        C  0.53032979  0.37945975  0.39847004    -0.22100
C211        C  0.51920251  0.39437707  0.39759201    -0.22100
C212        C  0.53459001  0.38012064  0.14243510    -0.22100
C213        C  0.52358461  0.39508803  0.14188926    -0.22100
C214        C  0.55769275  0.37279666  0.34740670    -0.17500
C215        C  0.56036622  0.37314270  0.19570350    -0.17500
C216        C  0.52256294  0.42716770  0.19329329    -0.17500
C217        C  0.51865690  0.42580843  0.34437073    -0.17500
H218        H  0.59916929  0.36640446  0.31484447     0.15400
H219        H  0.60026375  0.36607426  0.23267774     0.15400
H220        H  0.51959332  0.47256153  0.30888177     0.15400
H221        H  0.52234800  0.47377680  0.22631129     0.15400
H222        H  0.52917576  0.36680042  0.42480485     0.13700
H223        H  0.50782744  0.39550365  0.42322271     0.13700
H224        H  0.53410373  0.36760769  0.11653277     0.13700
H225        H  0.51267611  0.39597081  0.11540935     0.13700
H226        H  0.53694042  0.37578496  0.27044346     0.27000
H227        H  0.52163349  0.40297023  0.26941363     0.27000
O228        O  0.65395959  0.30230102  0.07250259    -0.84500
O229        O  0.59946151  0.24316864  0.04611290    -0.81600
C230        C  0.57964318  0.23733022  0.07167139     0.98900
O231        O  0.57193453  0.25334491  0.06992287    -0.81600
O232        O  0.57653406  0.30418003  0.05235192    -0.84300
C233        C  0.59749080  0.32833888  0.07459524     1.03500
O234        O  0.62600231  0.34283101  0.06978268    -0.77000
O235        O  0.67722434  0.35074211  0.05197992    -0.77200
C236        C  0.67577035  0.33222849  0.07629956     1.03400
O237        O  0.67577020  0.32162665  0.48794025    -0.84500
O238        O  0.61804054  0.26588166  0.46138902    -0.81600
C239        C  0.58872049  0.24369504  0.45768016     0.98900
O240        O  0.57064023  0.24314730  0.48077385    -0.81600
O241        O  0.58130339  0.29818750  0.46667535    -0.84200
C242        C  0.59560738  0.32756064  0.46599550     1.03400
O243        O  0.61739500  0.34664580  0.49175669    -0.77000
O244        O  0.66687032  0.35200574  0.47080818    -0.77200
C245        C  0.68139352  0.34307115  0.46515478     1.03400
Cr246      Cr  0.63483519  0.28368511  0.01749310     1.93700
Cr247      Cr  0.57697474  0.27522285  0.01718736     1.93200
Cr248      Cr  0.64379676  0.34292536  0.01719129     1.39100
O249        O  0.61837830  0.30067790  0.01723944    -1.22300
N250        N  0.52752733  0.12893104  0.26685233    -0.35800
N251        N  0.50665222  0.08137278  0.20365233    -0.56400
N252        N  0.48430783  0.03480486  0.26898019    -0.35800
N253        N  0.50813943  0.08367110  0.33216348    -0.56400
C254        C  0.54117093  0.14730562  0.23229681     0.27800
C255        C  0.54269360  0.14867056  0.29999128     0.27800
C256        C  0.48208462  0.01888853  0.23539125     0.27800
C257        C  0.48252135  0.02004928  0.30366894     0.27800
C258        C  0.51161002  0.10397737  0.17963771     0.36400
C259        C  0.48959421  0.05441594  0.18042760     0.36400
C260        C  0.51403147  0.10721922  0.35503100     0.36400
C261        C  0.49039961  0.05715203  0.35630697     0.36400
C262        C  0.56531847  0.17909515  0.24349201    -0.21100
C263        C  0.56626758  0.17996655  0.28633829    -0.21100
C264        C  0.47863668  0.99355042  0.24891921    -0.21100
C265        C  0.47898095  0.99429992  0.29195837    -0.21100
C266        C  0.49781782  0.09147753  0.14092964    -0.22100
C267        C  0.48369348  0.06001056  0.14148131    -0.22100
C268        C  0.50016666  0.09578616  0.39396315    -0.22100
C269        C  0.48473706  0.06390797  0.39456146    -0.22100
C270        C  0.53054221  0.13635232  0.19121978    -0.17500
C271        C  0.53372877  0.13936703  0.34196314    -0.17500
C272        C  0.48153021  0.02780653  0.34539129    -0.17500
C273        C  0.48106784  0.02551190  0.19305833    -0.17500
H274        H  0.58028197  0.19960686  0.22294603     0.15400
H275        H  0.58202735  0.20131468  0.30521390     0.15400
H276        H  0.47565820  0.97603552  0.22975548     0.15400
H277        H  0.47636041  0.97743772  0.31227152     0.15400
H278        H  0.49818616  0.10384247  0.11492007     0.13700
H279        H  0.47080114  0.04327656  0.11593831     0.13700
H280        H  0.50112445  0.10902491  0.41923849     0.13700
H281        H  0.47135601  0.04773327  0.42054836     0.13700
H282        H  0.50652783  0.10508006  0.26772196     0.27000
H283        H  0.48331190  0.05231643  0.26841009     0.27000
N284        N  0.44215121  0.94222595  0.01666550    -0.02700
C285        C  0.42737883  0.94180992  0.05039465    -0.00100
C286        C  0.40256883  0.93813448  0.03658416    -0.23000
C287        C  0.40059607  0.93818864  0.50165353    -0.23200
C288        C  0.42486043  0.94146898  0.48610290    -0.00200
H289        H  0.38882243  0.94072224  0.05505741     0.13600
H290        H  0.38740176  0.94214670  0.48480459     0.13600
C291        C  0.43845047  0.97365196  0.37596880    -0.11500
C292        C  0.46926427  0.00354572  0.37901096     0.05600
C293        C  0.48653912  0.01099206  0.41575635    -0.06700
C294        C  0.47203574  0.98959147  0.44943708    -0.07500
C295        C  0.44081610  0.96014248  0.44701153    -0.02000
C296        C  0.42416890  0.95196656  0.40936565     0.04800
N297        N  0.39247113  0.92217274  0.40478529     0.67300
H298        H  0.42488357  0.96763624  0.34804355     0.16200
H299        H  0.48502618  0.99656754  0.47822810     0.15900
N300        N  0.51844035  0.04068957  0.41991448     0.75000
O301        O  0.37036302  0.92108116  0.41151537    -0.38500
O302        O  0.38712496  0.90052073  0.38290480    -0.38400
O303        O  0.52614224  0.05927045  0.44976082    -0.39100
O304        O  0.53957255  0.04623506  0.39753142    -0.39200
C305        C  0.47446390  0.98776276  0.09036835    -0.11500
C306        C  0.44280051  0.95888271  0.09073417     0.05600
C307        C  0.42507829  0.95023173  0.12764797    -0.06700
C308        C  0.43842573  0.97139729  0.16162744    -0.06900
C309        C  0.46961570  0.00086259  0.16030593    -0.02000
C310        C  0.48817868  0.00810741  0.12513969     0.04800
N311        N  0.52079088  0.03663117  0.12390477     0.67300
H312        H  0.48847448  0.99520296  0.06242211     0.16200
H313        H  0.42396232  0.96532809  0.18858832     0.15900
N314        N  0.39306650  0.92065326  0.13050299     0.75000
O315        O  0.53967178  0.03930815  0.14786030    -0.38500
O316        O  0.53133478  0.05681281  0.09505484    -0.38400
O317        O  0.38702909  0.89552068  0.14030572    -0.39100
O318        O  0.37161551  0.92097700  0.13305502    -0.39200
C319        C  0.57622523  0.18054159  0.39065176    -0.11500
C320        C  0.54678584  0.16486776  0.37335484     0.05600
C321        C  0.53105649  0.17476450  0.38419930    -0.06700
C322        C  0.54520810  0.20057534  0.41146076    -0.07500
C323        C  0.57504288  0.21686606  0.42839478    -0.02000
C324        C  0.59033403  0.20601982  0.41865471     0.04800
N325        N  0.61898809  0.21900208  0.43870865     0.67300
H326        H  0.58802031  0.17246247  0.38277865     0.16200
H327        H  0.53287360  0.20808336  0.41914492     0.15900
N328        N  0.50066275  0.15872689  0.36777861     0.75000
O329        O  0.62061844  0.22013336  0.47804270    -0.38500
O330        O  0.63999205  0.22309397  0.41801651    -0.38400
O331        O  0.47677098  0.13997312  0.39079575    -0.39100
O332        O  0.49813082  0.16673098  0.33261427    -0.39200
C333        C  0.52878561  0.17454074  0.15728576    -0.11500
C334        C  0.54140100  0.16057327  0.15878068     0.05600
C335        C  0.56609755  0.17163388  0.13187616    -0.06700
C336        C  0.57787483  0.19639393  0.10390185    -0.07500
C337        C  0.56567862  0.21095260  0.10228422    -0.02000
C338        C  0.54065977  0.19955918  0.12934098     0.04800
N339        N  0.52701094  0.21297021  0.12891975     0.67300
H340        H  0.50994397  0.16626916  0.17840387     0.16200
H341        H  0.59715985  0.20458050  0.08382931     0.15900
N342        N  0.58031860  0.15881174  0.13399867     0.75000
O343        O  0.50134921  0.19847877  0.11025379    -0.38500
O344        O  0.53762826  0.23603094  0.15279910    -0.38400
O345        O  0.57216673  0.13727509  0.10883277    -0.39100
O346        O  0.60022712  0.16818708  0.16200572    -0.39200
C347        C  0.55740783  0.31920420  0.12103864    -0.11500
C348        C  0.58837960  0.34016430  0.10573451     0.05600
C349        C  0.60976991  0.37234099  0.11961217    -0.06700
C350        C  0.60007932  0.38264326  0.14842298    -0.07500
C351        C  0.56934260  0.36152507  0.16395115    -0.02000
C352        C  0.54783486  0.32961941  0.14992490     0.04800
N353        N  0.51619226  0.30758342  0.16477060     0.67300
H354        H  0.54052700  0.29452036  0.11074647     0.16200
H355        H  0.61666629  0.40730700  0.15884765     0.15900
N356        N  0.64107941  0.39521850  0.10366151     0.75000
O357        O  0.49523238  0.30367926  0.14444389    -0.38500
O358        O  0.50834469  0.28828328  0.19365734    -0.38400
O359        O  0.64699216  0.41212249  0.07250088    -0.39100
O360        O  0.66339620  0.40222646  0.12463515    -0.39200
C361        C  0.59046803  0.38227935  0.40710861    -0.11500
C362        C  0.56545650  0.36057162  0.38004648     0.05600
C363        C  0.55027149  0.32811997  0.38138506    -0.06700
C364        C  0.56070311  0.31797416  0.40897351    -0.07500
C365        C  0.58601916  0.33964841  0.43611674    -0.02000
C366        C  0.60083772  0.37225298  0.43502819     0.04800
N367        N  0.62653304  0.39568610  0.46180028     0.67300
H368        H  0.60248357  0.40736159  0.40588778     0.16200
H369        H  0.54859946  0.29286828  0.40938965     0.15900
N370        N  0.52399533  0.30518326  0.35506286     0.75000
O371        O  0.65424587  0.41105710  0.44962111    -0.38500
O372        O  0.62531096  0.40697497  0.97628466    -0.38400
O373        O  0.52625586  0.29166505  0.32639474    -0.39100
O374        O  0.49748608  0.29529223  0.36407758    -0.39200
C375        C  0.73580285  0.35452632  0.38443653    -0.11500
C376        C  0.75595474  0.38724052  0.37600806     0.05600
C377        C  0.75100523  0.40557766  0.39571945    -0.06700
C378        C  0.72587159  0.39079281  0.42377916    -0.07500
C379        C  0.70596850  0.35798143  0.43281743    -0.02000
C380        C  0.71101145  0.33982262  0.41247878     0.04800
N381        N  0.69016854  0.30602815  0.41841076     0.67300
H382        H  0.73916996  0.34021871  0.36865624     0.16200
H383        H  0.72247512  0.40511147  0.43939000     0.15900
N384        N  0.77138106  0.43908688  0.38768449     0.75000
O385        O  0.66633738  0.28757989  0.39537539    -0.38500
O386        O  0.69840254  0.29471454  0.44104462    -0.38400
O387        O  0.76185168  0.44946705  0.36590164    -0.39100
O388        O  0.79701240  0.45853973  0.40710055    -0.39200
C389        C  0.75434247  0.38747226  0.13237781    -0.11500
C390        C  0.74885677  0.36735135  0.16417265     0.05600
C391        C  0.71931439  0.33598537  0.16747697    -0.06700
C392        C  0.69555103  0.32538395  0.13936257    -0.07500
C393        C  0.70084427  0.34544098  0.10731668    -0.02000
C394        C  0.73075452  0.37687538  0.10394223     0.04800
N395        N  0.73787822  0.39819008  0.07148318     0.67300
H396        H  0.77700731  0.41173569  0.13000986     0.16200
H397        H  0.67298461  0.30110848  0.14227354     0.15900
N398        N  0.71335620  0.31456627  0.19885138     0.75000
O399        O  0.73254189  0.41603038  0.07712552    -0.38500
O400        O  0.75463254  0.40345754  0.04098798    -0.38400
O401        O  0.69168283  0.30271152  0.22516218    -0.39100
O402        O  0.72651429  0.30390466  0.19644926    -0.39200
C403        C  0.46223355  0.41765026  0.12921373    -0.11500
C404        C  0.47868615  0.43233104  0.09166083     0.05600
C405        C  0.51122759  0.45011675  0.09037566    -0.06700
C406        C  0.52616358  0.45134144  0.12570640    -0.07500
C407        C  0.50880403  0.43353936  0.16147177    -0.02000
C408        C  0.47684124  0.41757096  0.16374070     0.04800
N409        N  0.45809899  0.39784643  0.19884390     0.67300
H410        H  0.43716945  0.40348150  0.13032354     0.16200
H411        H  0.55066711  0.46334609  0.12368173     0.15900
N412        N  0.52830422  0.46268893  0.05198139     0.75000
O413        O  0.44760893  0.40596283  0.22348208    -0.38500
O414        O  0.45139961  0.37188548  0.20472136    -0.38400
O415        O  0.55003910  0.49257948  0.04736571    -0.39100
O416        O  0.52689598  0.44433480  0.02765454    -0.39200
C417        C  0.50419606  0.45353136  0.44015691    -0.11500
C418        C  0.47112522  0.43092280  0.44139878     0.05600
C419        C  0.45461348  0.41151844  0.40572304    -0.06700
C420        C  0.47078627  0.41154386  0.37321341    -0.07500
C421        C  0.50341346  0.43163967  0.37443424    -0.02000
C422        C  0.52033583  0.45435119  0.40660382     0.04800
N423        N  0.55384915  0.47774325  0.40594862     0.67300
H424        H  0.51761401  0.46943547  0.46620321     0.16200
H425        H  0.45767313  0.39483391  0.34762455     0.15900
N426        N  0.42120700  0.39038961  0.40304333     0.75000
O427        O  0.56819199  0.50307780  0.38498297    -0.38500
O428        O  0.56901527  0.47173614  0.42258713    -0.38400
O429        O  0.40909377  0.40185822  0.39681491    -0.39100
O430        O  0.40466946  0.36076916  0.39806620    -0.39200
C431        C  0.94998074  0.45491601  0.12691004    -0.11500
C432        C  0.94768834  0.46689553  0.09048462     0.05600
C433        C  0.92390988  0.46803366  0.08901852    -0.06700
C434        C  0.90353856  0.45697771  0.12280322    -0.07500
C435        C  0.90447940  0.44279069  0.15755726    -0.02000
C436        C  0.92732940  0.44077449  0.15876388     0.04800
N437        N  0.92695251  0.42336242  0.19132311     0.67300
H438        H  0.96943199  0.45669360  0.13114082     0.16200
H439        H  0.88659133  0.45939775  0.12175823     0.15900
N440        N  0.92105159  0.48209916  0.05481191     0.75000
O441        O  0.95014495  0.43724562  0.21533754    -0.38500
O442        O  0.90415701  0.39352550  0.19438638    -0.38400
O443        O  0.89790788  0.46423407  0.03055617    -0.39100
O444        O  0.93516657  0.51132087  0.05679521    -0.39200
C445        C  0.95613936  0.49843215  0.42003723    -0.11500
C446        C  0.94795834  0.47558866  0.44973486     0.05600
C447        C  0.92193886  0.44286358  0.44135855    -0.06700
C448        C  0.90610240  0.43392206  0.40329223    -0.07500
C449        C  0.91184201  0.45695289  0.37662563    -0.02000
C450        C  0.93707296  0.48964754  0.38542823     0.04800
N451        N  0.94162091  0.51409486  0.36240972     0.67300
H452        H  0.97540705  0.52367945  0.42624993     0.16200
H453        H  0.88603032  0.40878945  0.39745560     0.15900
N454        N  0.90773000  0.41914697  0.47338021     0.75000
O455        O  0.91979803  0.51389904  0.36062748    -0.38500
O456        O  0.96872998  0.53848558  0.34993576    -0.38400
O457        O  0.88892989  0.41239913  0.01294721    -0.39100
O458        O  0.90217239  0.39388301  0.46658315    -0.39200
C459        C  0.03458154  0.49550219  0.39275108    -0.11500
C460        C  0.02275547  0.47152191  0.36332106     0.05600
C461        C  0.99046554  0.44377286  0.36417922    -0.06700
C462        C  0.97211093  0.43872202  0.39775812    -0.07500
C463        C  0.98599615  0.45915257  0.43275065    -0.02000
C464        C  0.01684382  0.48966116  0.42784321     0.04800
N465        N  0.03134277  0.51479694  0.45783332     0.67300
H466        H  0.05871689  0.51808274  0.39013649     0.16200
H467        H  0.94821728  0.41570611  0.40000828     0.15900
N468        N  0.97689011  0.41861749  0.33448417     0.75000
O469        O  0.05895304  0.52925035  0.46926906    -0.38500
O470        O  0.02300621  0.53021351  0.45864742    -0.38400
O471        O  0.98273387  0.40100355  0.33671183    -0.39100
O472        O  0.95535561  0.41078941  0.31065447    -0.39200
C473        C  0.03050201  0.46325077  0.12105726    -0.11500
C474        C  0.01744469  0.44111530  0.15342694     0.05600
C475        C  0.98520671  0.41337464  0.15267547    -0.06700
C476        C  0.96674598  0.40800757  0.11892622    -0.07500
C477        C  0.98016207  0.42977324  0.08530504    -0.02000
C478        C  0.01250507  0.45746237  0.08683160     0.04800
N479        N  0.02866387  0.47741703  0.05139224     0.67300
H480        H  0.05539831  0.48447923  0.12132029     0.16200
H481        H  0.94218174  0.38607754  0.11796167     0.15900
N482        N  0.97152227  0.38955561  0.18442619     0.75000
O483        O  0.04224771  0.50645171  0.05405935    -0.38500
O484        O  0.03768532  0.46902970  0.02436992    -0.38400
O485        O  0.95627354  0.38831447  0.21384568    -0.39100
O486        O  0.97106556  0.36724673  0.18001052    -0.39200
C487        C  0.37002996  0.55970827  0.36863120    -0.11500
C488        C  0.35552925  0.52755853  0.36984720     0.05600
C489        C  0.33106499  0.50659153  0.39862178    -0.06700
C490        C  0.32158821  0.51805256  0.42567126    -0.07500
C491        C  0.33645163  0.55036379  0.42491417    -0.02000
C492        C  0.36085348  0.57126541  0.39601647     0.04800
N493        N  0.37567098  0.60395364  0.39300786     0.67300
H494        H  0.38860113  0.57590548  0.34621997     0.16200
H495        H  0.30290322  0.50176333  0.44791384     0.15900
N496        N  0.31551975  0.47363032  0.40045018     0.75000
O497        O  0.40120152  0.62523207  0.41182713    -0.38500
O498        O  0.36674797  0.61207153  0.36543256    -0.38400
O499        O  0.32196381  0.46395799  0.42948122    -0.39100
O500        O  0.29166032  0.45350890  0.37808541    -0.39200
C501        C  0.36472669  0.57448097  0.13125786    -0.11500
C502        C  0.34170456  0.55276991  0.10153428     0.05600
C503        C  0.33083177  0.52169439  0.09970098    -0.06700
C504        C  0.34270625  0.51308460  0.12726367    -0.07500
C505        C  0.36518889  0.53465059  0.15712539    -0.02000
C506        C  0.37638494  0.56564518  0.15892480     0.04800
N507        N  0.39953883  0.58832990  0.18888630     0.67300
H508        H  0.37370606  0.59845291  0.13326759     0.16200
H509        H  0.33370089  0.48906773  0.12608233     0.15900
N510        N  0.30746031  0.49830643  0.07045571     0.75000
O511        O  0.42827007  0.60597502  0.18017046    -0.38500
O512        O  0.39151682  0.59412718  0.22098398    -0.38400
O513        O  0.31552506  0.49308882  0.03777704    -0.39100
O514        O  0.27886594  0.47921301  0.08072308    -0.39200
C515        C  0.17284852  0.49981116  0.39213902    -0.11500
C516        C  0.17072431  0.52083024  0.37501187     0.05600
C517        C  0.19299757  0.55336635  0.38604046    -0.06700
C518        C  0.21790717  0.56471374  0.41253408    -0.07500
C519        C  0.22061800  0.54383108  0.42938639    -0.02000
C520        C  0.19717348  0.51081883  0.41951257     0.04800
N521        N  0.19762809  0.48803797  0.43678036     0.67300
H522        H  0.15567222  0.47469924  0.38374206     0.16200
H523        H  0.23494021  0.58993308  0.42032059     0.15900
N524        N  0.19061732  0.57508458  0.37022260     0.75000
O525        O  0.18051157  0.47143666  0.46785653    -0.38500
O526        O  0.23035863  0.49251763  0.89288933    -0.38400
O527        O  0.17236807  0.57692567  0.38750718    -0.39100
O528        O  0.20537927  0.59112065  0.33764306    -0.39200
C529        C  0.19430724  0.53157244  0.10026966    -0.11500
C530        C  0.21359865  0.52491697  0.10163221     0.05600
C531        C  0.20700723  0.50290666  0.13190174    -0.06700
C532        C  0.18259444  0.48946950  0.16092497    -0.07500
C533        C  0.16448284  0.49750898  0.16028068    -0.02000
C534        C  0.17021864  0.51833804  0.12913846     0.04800
N535        N  0.15269089  0.52755406  0.12769801     0.67300
H536        H  0.19834846  0.54796281  0.07724029     0.16200
H537        H  0.17828388  0.47338392  0.18476496     0.15900
N538        N  0.22507274  0.49436217  0.13418891     0.75000
O539        O  0.15967396  0.54902163  0.15196262    -0.38500
O540        O  0.13361995  0.51784250  0.09828477    -0.38400
O541        O  0.24822518  0.50931523  0.15859115    -0.39100
O542        O  0.21481025  0.46873190  0.11748671    -0.39200
C543        C  0.33990018  0.70333817  0.14773289    -0.11500
C544        C  0.36997452  0.72075888  0.16403390     0.05600
C545        C  0.38672744  0.71192153  0.15385005    -0.06700
C546        C  0.37343315  0.68610168  0.12693614    -0.07500
C547        C  0.34315175  0.66836333  0.11045622    -0.02000
C548        C  0.32622628  0.67710323  0.12149821     0.04800
N549        N  0.29538972  0.66003927  0.10581115     0.67300
H550        H  0.32671527  0.70975008  0.15620309     0.16200
H551        H  0.38682835  0.67985752  0.11898058     0.15900
N552        N  0.41709391  0.72879704  0.17116993     0.75000
O553        O  0.27188538  0.63606542  0.12558065    -0.38500
O554        O  0.29147208  0.67227002  0.07726351    -0.38400
O555        O  0.41972099  0.71857753  0.20401153    -0.39100
O556        O  0.44071389  0.75579615  0.15669891    -0.39200
C557        C  0.36311681  0.72211994  0.40973990    -0.11500
C558        C  0.38432858  0.72917437  0.37937433     0.05600
C559        C  0.39388350  0.71211822  0.37912990    -0.06700
C560        C  0.38090254  0.68726844  0.40791928    -0.07500
C561        C  0.35887676  0.67950355  0.43783406    -0.02000
C562        C  0.35075253  0.69803959  0.43914967     0.04800
N563        N  0.33000719  0.69294973  0.47012658     0.67300
H564        H  0.35565724  0.73513015  0.41019245     0.16200
H565        H  0.38803354  0.67398400  0.40669294     0.15900
N566        N  0.41687261  0.71996984  0.34996629     0.75000
O567        O  0.34100113  0.70738970  0.50459200    -0.38500
O568        O  0.30221683  0.67897579  0.46038831    -0.38400
O569        O  0.44563073  0.74248215  0.35808744    -0.39100
O570        O  0.40874705  0.70132161  0.32002464    -0.39200
C571        C  0.48900266  0.49986488  0.40871986    -0.11500
C572        C  0.47235081  0.48431177  0.44591028     0.05600
C573        C  0.43962339  0.46569189  0.44664823    -0.06700
C574        C  0.42466740  0.46423982  0.41127882    -0.07500
C575        C  0.44189529  0.48246337  0.37574561    -0.02000
C576        C  0.47418540  0.49942141  0.37390297     0.04800
N577        N  0.49280981  0.51879696  0.33856796     0.67300
H578        H  0.51415776  0.51449889  0.40783747     0.16200
H579        H  0.39983164  0.45105761  0.41288749     0.15900
N580        N  0.42196006  0.45196167  0.48445444     0.75000
O581        O  0.50368731  0.54687921  0.33603195    -0.38500
O582        O  0.50307064  0.51020904  0.31436488    -0.38400
O583        O  0.42131159  0.46911173  0.50832469    -0.39100
O584        O  0.40073332  0.42190468  0.48771640    -0.39200
C585        C  0.44518338  0.46128649  0.09523265    -0.11500
C586        C  0.47824040  0.48437082  0.09468081     0.05600
C587        C  0.49417788  0.50365382  0.13061093    -0.06700
C588        C  0.47725658  0.50254162  0.16307272    -0.07500
C589        C  0.44453178  0.48159409  0.16138544    -0.02000
C590        C  0.42833978  0.45943992  0.12855260     0.04800
N591        N  0.39481019  0.43564969  0.12825104     0.67300
H592        H  0.43223989  0.44537748  0.06908641     0.16200
H593        H  0.48979232  0.51889633  0.18912542     0.15900
N594        N  0.52761333  0.52537365  0.13389050     0.75000
O595        O  0.37971385  0.43759424  0.10262633    -0.38500
O596        O  0.38021525  0.41295609  0.15426342    -0.38400
O597        O  0.54342462  0.55455733  0.14154883    -0.39100
O598        O  0.54050300  0.51448469  0.13712447    -0.39200
C599        C  0.42972649  0.89440558  0.44158551    -0.11500
C600        C  0.46122563  0.92366668  0.44026205     0.05600
C601        C  0.47848189  0.93208627  0.40289381    -0.06700
C602        C  0.46525223  0.91018633  0.37010670    -0.07500
C603        C  0.43498139  0.87997658  0.37343538    -0.02000
C604        C  0.41647296  0.87261625  0.40847233     0.04800
N605        N  0.38471597  0.84252999  0.41140062     0.67300
H606        H  0.41564744  0.88770024  0.46907161     0.16200
H607        H  0.47935973  0.91616526  0.34272382     0.15900
N608        N  0.50990039  0.96222443  0.39804064     0.75000
O609        O  0.37642918  0.82364477  0.44113844    -0.38500
O610        O  0.36516682  0.83424455  0.38339048    -0.38400
O611        O  0.53214368  0.96303062  0.39813995    -0.39100
O612        O  0.51402403  0.98445941  0.37992695    -0.39200
C613        C  0.47729049  0.93140199  0.12844992    -0.11500
C614        C  0.46098711  0.92083211  0.09040937     0.05600
C615        C  0.43082427  0.88963535  0.08821202    -0.06700
C616        C  0.41831046  0.86953778  0.12305732    -0.07500
C617        C  0.43622332  0.87879840  0.15917247    -0.02000
C618        C  0.46558705  0.91048084  0.16238473     0.04800
N619        N  0.48516952  0.92067598  0.19807666     0.67300
H620        H  0.50056216  0.95513366  0.13051961     0.16200
H621        H  0.39561950  0.84532853  0.12045728     0.15900
N622        N  0.41473281  0.87598746  0.04947953     0.75000
O623        O  0.49873976  0.91064870  0.20343176    -0.38500
O624        O  0.49261228  0.94312670  0.22055487    -0.38400
O625        O  0.42092508  0.86267336  0.02706129    -0.39100
O626        O  0.38900402  0.86870205  0.04428715    -0.39200
N627        N  0.46599671  0.94113201  0.01739575    -0.02700
C628        C  0.47712898  0.93771345  0.54811691    -0.00100
C629        C  0.50330149  0.94400569  0.53409656    -0.23000
C630        C  0.50840677  0.94959916  0.99942622    -0.23200
C631        C  0.48277203  0.94411401  0.98427978    -0.00200
H632        H  0.51767585  0.94199541  0.55199318     0.13600
H633        H  0.52395278  0.94912952  0.98184754     0.13600
N634        N  0.48106879  0.47402046  0.51843416    -0.02700
C635        C  0.49266959  0.49290860  0.98592854    -0.00100
C636        C  0.51073662  0.52494626  0.49780580    -0.23000
C637        C  0.51166290  0.52469778  0.54047767    -0.23200
C638        C  0.49194886  0.49301268  0.55305857    -0.00200
H639        H  0.52292073  0.54499246  0.97923859     0.13600
H640        H  0.52121465  0.54507304  0.55993695     0.13600
N641        N  0.43474819  0.85162903  0.76763032    -0.35800
N642        N  0.41314885  0.80325257  0.70550367    -0.56400
N643        N  0.39979949  0.76022188  0.77117577    -0.35800
N644        N  0.41862839  0.80743458  0.83335857    -0.56400
C645        C  0.43344655  0.86454609  0.73339187     0.27800
C646        C  0.43544312  0.86642556  0.80128751     0.27800
C647        C  0.38435430  0.73985077  0.73857573     0.27800
C648        C  0.38768631  0.74222422  0.80629428     0.27800
C649        C  0.42714273  0.82877972  0.68012275     0.36400
C650        C  0.40740985  0.78002588  0.68200181     0.36400
C651        C  0.43340051  0.83422352  0.85630033     0.36400
C652        C  0.41540579  0.78614601  0.85817261     0.36400
C653        C  0.43333985  0.88786118  0.74540061    -0.21100
C654        C  0.43467025  0.88909536  0.78830113    -0.21100
C655        C  0.36246305  0.70861619  0.75308658    -0.21100
C656        C  0.36437800  0.71012535  0.79583263    -0.21100
C657        C  0.43042613  0.82168208  0.64034201    -0.22100
C658        C  0.41757360  0.79066231  0.64145851    -0.22100
C659        C  0.43977390  0.82997359  0.89584366    -0.22100
C660        C  0.42828288  0.79946649  0.89704419    -0.22100
C661        C  0.43457620  0.85732520  0.69163442    -0.17500
C662        C  0.43865515  0.86129291  0.84318162    -0.17500
C663        C  0.39812176  0.75386849  0.84739777    -0.17500
C664        C  0.39081172  0.74857694  0.69603046    -0.17500
H665        H  0.43279620  0.90274887  0.72531813     0.15400
H666        H  0.43533739  0.90510717  0.80767790     0.15400
H667        H  0.34677644  0.68692604  0.73481135     0.15400
H668        H  0.35036119  0.68979802  0.81678752     0.15400
H669        H  0.44053641  0.83699787  0.61308806     0.13700
H670        H  0.41571069  0.77737773  0.61538831     0.13700
H671        H  0.45091936  0.84682736  0.92146076     0.13700
H672        H  0.42873404  0.78813582  0.92371310     0.13700
H673        H  0.43872069  0.83638972  0.76774195     0.27000
H674        H  0.41968613  0.78456634  0.76936428     0.27000
O675        O  0.24897019  0.56676661  0.54800229    -0.84500
O676        O  0.30687158  0.62232400  0.57518787    -0.81600
C677        C  0.33619780  0.64421957  0.57971424     0.98900
O678        O  0.35444847  0.64544769  0.55581288    -0.81600
O679        O  0.34514214  0.59141232  0.56806620    -0.84300
C680        C  0.33048385  0.56202411  0.57044398     1.03500
O681        O  0.30784735  0.54223495  0.54600153    -0.77000
O682        O  0.25831055  0.53719970  0.56707086    -0.77200
C683        C  0.24248507  0.54481193  0.57053809     1.03400
O684        O  0.26468714  0.58216820  0.96330057    -0.84500
O685        O  0.31873646  0.64210613  0.98978679    -0.81600
C686        C  0.34100823  0.65056442  0.96687807     0.98900
O687        O  0.34989421  0.63562608  0.96889364    -0.81600
O688        O  0.34729799  0.58597350  0.98344932    -0.84200
C689        C  0.32781602  0.56302897  0.95880194     1.03400
O690        O  0.29890515  0.54754266  0.96161994    -0.77000
O691        O  0.24464911  0.53425948  0.98062159    -0.77200
C692        C  0.24452565  0.55228133  0.95774295     1.03400
Cr693      Cr  0.28835696  0.60367716  0.51968697     1.93700
Cr694      Cr  0.34647443  0.61237949  0.51745679     1.93200
Cr695      Cr  0.27986177  0.54451107  0.51360654     1.39100
O696        O  0.30499219  0.58680118  0.51678712    -1.22300
N697        N  0.42242108  0.48839369  0.76999891    -0.35800
N698        N  0.39743750  0.50114972  0.70416533    -0.56400
N699        N  0.37433709  0.51706793  0.76776885    -0.35800
N700        N  0.39612856  0.50086829  0.83366328    -0.56400
C701        C  0.42583212  0.47662602  0.73644069     0.27800
C702        C  0.42621464  0.47767594  0.80445830     0.27800
C703        C  0.36150545  0.51777578  0.73326094     0.27800
C704        C  0.35973496  0.51640017  0.80122517     0.27800
C705        C  0.41549879  0.49910860  0.68100777     0.36400
C706        C  0.39110075  0.51559603  0.67987546     0.36400
C707        C  0.41473716  0.50023616  0.85792595     0.36400
C708        C  0.38808962  0.51420955  0.85690389     0.36400
C709        C  0.43170304  0.45797087  0.74970676    -0.21100
C710        C  0.43185850  0.45853973  0.79268933    -0.21100
C711        C  0.33829778  0.51746540  0.74488273    -0.21100
C712        C  0.33720197  0.51663779  0.78777916    -0.21100
C713        C  0.42027944  0.51196065  0.64165213    -0.22100
C714        C  0.40474069  0.52230169  0.64092308    -0.22100
C715        C  0.41813087  0.51287484  0.89693394    -0.22100
C716        C  0.40099210  0.52138841  0.89639695    -0.22100
C717        C  0.42676651  0.48474818  0.69435952    -0.17500
C718        C  0.42749438  0.48706585  0.84593109    -0.17500
C719        C  0.36852972  0.51917813  0.84334470    -0.17500
C720        C  0.37203081  0.52154364  0.69184124    -0.17500
H721        H  0.43615301  0.44587821  0.73034051     0.15400
H722        H  0.43641969  0.44689722  0.81294628     0.15400
H723        H  0.32417858  0.51856223  0.72459897     0.15400
H724        H  0.32214090  0.51711044  0.80686365     0.15400
H725        H  0.43361123  0.51377148  0.61608452     0.13700
H726        H  0.40366900  0.53353761  0.61476308     0.13700
H727        H  0.43158883  0.51579026  0.92314354     0.13700
H728        H  0.39859626  0.53197400  0.92202141     0.13700
H729        H  0.42196311  0.50659221  0.76937202     0.27000
H730        H  0.39515681  0.52145608  0.76856965     0.27000
N731        N  0.13380939  0.48711488  0.76340873    -0.35800
N732        N  0.08933742  0.46986068  0.69921940    -0.56400
N733        N  0.04634363  0.45729181  0.76167628    -0.35800
N734        N  0.09171922  0.47664954  0.82592742    -0.56400
C735        C  0.15193014  0.49803457  0.72888570     0.27800
C736        C  0.15342599  0.50230227  0.79641396     0.27800
C737        C  0.03498018  0.46000178  0.72715506     0.27800
C738        C  0.03532017  0.46177934  0.79473728     0.27800
C739        C  0.10981160  0.47173475  0.67560917     0.36400
C740        C  0.06429709  0.45710859  0.67476486     0.36400
C741        C  0.11342587  0.48184408  0.85117699     0.36400
C742        C  0.06656428  0.46415443  0.85011774     0.36400
C743        C  0.18337206  0.51994426  0.74014917    -0.21100
C744        C  0.18430203  0.52258155  0.78279470    -0.21100
C745        C  0.01661526  0.46634198  0.73840268    -0.21100
C746        C  0.01676316  0.46738278  0.78120469    -0.21100
C747        C  0.09762606  0.45978519  0.63604316    -0.22100
C748        C  0.06868034  0.45037009  0.63554434    -0.22100
C749        C  0.10212142  0.47267314  0.89162911    -0.22100
C750        C  0.07225953  0.46110010  0.89090739    -0.22100
C751        C  0.14089696  0.48810093  0.68757981    -0.17500
C752        C  0.14419813  0.49727432  0.83864295    -0.17500
C753        C  0.04034937  0.45929709  0.83678765    -0.17500
C754        C  0.03961270  0.45537816  0.68594554    -0.17500
H755        H  0.20361739  0.53277383  0.71979431     0.15400
H756        H  0.20535869  0.53775553  0.80159840     0.15400
H757        H  0.00420209  0.46963652  0.71793626     0.15400
H758        H  0.00451925  0.47167203  0.80020156     0.15400
H759        H  0.10893067  0.45905078  0.60987950     0.13700
H760        H  0.05317961  0.44079694  0.60891419     0.13700
H761        H  0.11429918  0.47457727  0.91885432     0.13700
H762        H  0.05692797  0.45241591  0.91766049     0.13700
H763        H  0.10957728  0.46822011  0.76461134     0.27000
H764        H  0.05803640  0.44937678  0.76293895     0.27000
N765        N  0.97242969  0.45204019  0.51183318    -0.02700
C766        C  0.96736958  0.42802578  0.97880417    -0.00100
C767        C  0.96957958  0.41518523  0.47925153    -0.23000
C768        C  0.96735743  0.40949727  0.52098121    -0.23200
C769        C  0.97077271  0.43320316  0.54060808    -0.00200
H770        H  0.95568871  0.38309306  0.96336136     0.13600
H771        H  0.96820078  0.39294110  0.53549377     0.13600
N772        N  0.96699639  0.47257450  0.52010312    -0.02700
C773        C  0.96290569  0.47672019  0.98832120    -0.00100
C774        C  0.96747185  0.51191625  0.51076537    -0.23000
C775        C  0.97151945  0.51047702  0.55231144    -0.23200
C776        C  0.96891961  0.48468254  0.55821531    -0.00200
H777        H  0.97959902  0.52479012  0.98201287     0.13600
H778        H  0.97010192  0.52293652  0.57605813     0.13600
N779        N  0.46551030  0.44107095  0.51699933    -0.02700
C780        C  0.45675756  0.42126242  0.98499065    -0.00100
C781        C  0.43418435  0.39028918  0.49513497    -0.23000
C782        C  0.43480534  0.39004788  0.53779391    -0.23200
C783        C  0.45554559  0.42152696  0.55054653    -0.00200
H784        H  0.42913495  0.36946207  0.97941131     0.13600
H785        H  0.42546407  0.36948161  0.55677348     0.13600
N786        N  0.78618250  0.38785673  0.76817772    -0.35800
N787        N  0.83111514  0.40939790  0.83163584    -0.56400
N788        N  0.87436970  0.42152734  0.76857893    -0.35800
N789        N  0.82842056  0.39732116  0.70464019    -0.56400
C790        C  0.76821736  0.37738008  0.80278827     0.27800
C791        C  0.76664315  0.36996228  0.73608248     0.27800
C792        C  0.88793858  0.42275909  0.80376602     0.27800
C793        C  0.88761502  0.41929652  0.73597716     0.27800
C794        C  0.81116769  0.40921441  0.85379911     0.36400
C795        C  0.85741453  0.42548922  0.85467158     0.36400
C796        C  0.80670298  0.39311211  0.68090072     0.36400
C797        C  0.85443177  0.41328324  0.68071737     0.36400
C798        C  0.73691597  0.35225921  0.79262244    -0.21100
C799        C  0.73590170  0.34774785  0.75029769    -0.21100
C800        C  0.90990865  0.42097271  0.79344840    -0.21100
C801        C  0.90985581  0.41901768  0.75054742    -0.21100
C802        C  0.82489909  0.42545654  0.89105037    -0.22100
C803        C  0.85422561  0.43575386  0.89165806    -0.22100
C804        C  0.81866706  0.40609451  0.64159562    -0.22100
C805        C  0.84917555  0.41939805  0.64167346    -0.22100
C806        C  0.77952645  0.39119215  0.84271144    -0.17500
C807        C  0.77572102  0.37604017  0.69390971    -0.17500
C808        C  0.88207693  0.42073397  0.69350441    -0.17500
C809        C  0.88305526  0.42858126  0.84427790    -0.17500
H810        H  0.71684233  0.33889858  0.81335421     0.15400
H811        H  0.71490905  0.33052976  0.73193361     0.15400
H812        H  0.92514376  0.42208682  0.81454850     0.15400
H813        H  0.92492605  0.41822660  0.73211454     0.15400
H814        H  0.81455349  0.42878057  0.91563916     0.13700
H815        H  0.87104988  0.44882458  0.91679102     0.13700
H816        H  0.80673783  0.40618553  0.61579032     0.13700
H817        H  0.86547586  0.43195358  0.61583323     0.13700
H818        H  0.80983578  0.40864590  0.76555915     0.27000
H819        H  0.86012739  0.42641666  0.76649440     0.27000
N820        N  0.54456400  0.36676917  0.76898571    -0.35800
N821        N  0.53060248  0.39198044  0.83226063    -0.56400
N822        N  0.51711308  0.41640427  0.76666084    -0.35800
N823        N  0.53419602  0.39426906  0.70341398    -0.56400
C824        C  0.55537405  0.36339201  0.80359241     0.27800
C825        C  0.55807118  0.36544144  0.73583280     0.27800
C826        C  0.51652397  0.43025517  0.80035008     0.27800
C827        C  0.51750728  0.43050209  0.73239877     0.27800
C828        C  0.53214276  0.37377097  0.85682307     0.36400
C829        C  0.51736707  0.39996027  0.85552637     0.36400
C830        C  0.53729176  0.37684590  0.67994402     0.36400
C831        C  0.52069713  0.40124622  0.67872833     0.36400
C832        C  0.57568835  0.35954999  0.79225487    -0.21100
C833        C  0.57733825  0.36077597  0.74950139    -0.21100
C834        C  0.51681513  0.45367018  0.78739866    -0.21100
C835        C  0.51749046  0.45386533  0.74441486    -0.21100
C836        C  0.52026101  0.37048742  0.89608212    -0.22100
C837        C  0.51072480  0.38692083  0.89523312    -0.22100
C838        C  0.52630725  0.37318678  0.63995893    -0.22100
C839        C  0.51537991  0.38826658  0.63929874    -0.22100
C840        C  0.54625762  0.36211636  0.84504315    -0.17500
C841        C  0.55173578  0.36599001  0.69353296    -0.17500
C842        C  0.51438924  0.42032241  0.69086781    -0.17500
C843        C  0.51250540  0.42003105  0.84206765    -0.17500
H844        H  0.58791384  0.35597835  0.81263280     0.15400
H845        H  0.59094953  0.35816163  0.73066183     0.15400
H846        H  0.51575182  0.46842725  0.80688445     0.15400
H847        H  0.51698884  0.46875621  0.72426792     0.15400
H848        H  0.51879899  0.35774338  0.92257457     0.13700
H849        H  0.50040248  0.38927211  0.92108297     0.13700
H850        H  0.52604923  0.36080654  0.61407655     0.13700
H851        H  0.50489999  0.38959141  0.61265430     0.13700
H852        H  0.52640764  0.36632899  0.76785442     0.27000
H853        H  0.51268449  0.39543683  0.76690315     0.27000
O854        O  0.65599391  0.30157450  0.57197499    -0.84500
O855        O  0.60101178  0.24393572  0.54491787    -0.81600
C856        C  0.58040458  0.23711340  0.56991011     0.98900
O857        O  0.57222414  0.25274572  0.56883757    -0.81600
O858        O  0.57727490  0.30418981  0.55425018    -0.84300
C859        C  0.59701413  0.32652799  0.57938607     1.03500
O860        O  0.62555652  0.34055312  0.57733274    -0.77000
O861        O  0.67821900  0.35072714  0.55770053    -0.77200
C862        C  0.67716774  0.33118282  0.57864013     1.03400
O863        O  0.67456297  0.31964252  0.98877036    -0.84500
O864        O  0.61678589  0.26409834  0.96263237    -0.81600
C865        C  0.58749261  0.24210112  0.95826996     0.98900
O866        O  0.56909127  0.24114105  0.98144914    -0.81600
O867        O  0.57735716  0.29416283  0.96487177    -0.84200
C868        C  0.59197040  0.32345368  0.96094384     1.03400
O869        O  0.61560079  0.34407196  0.98352728    -0.77000
O870        O  0.66464236  0.34754660  0.96412851    -0.77200
C871        C  0.68071692  0.34008463  0.96335399     1.03400
Cr872      Cr  0.63641357  0.28476454  0.51677378     1.93700
Cr873      Cr  0.57863959  0.27661810  0.51772198     1.93200
Cr874      Cr  0.64501078  0.34404711  0.52409016     1.39100
O875        O  0.61998683  0.30185222  0.51956330    -1.22300
N876        N  0.53067718  0.12999469  0.76449241    -0.35800
N877        N  0.51300901  0.08329894  0.70183628    -0.56400
N878        N  0.49483973  0.03871933  0.76786302    -0.35800
N879        N  0.51540656  0.08664798  0.83047178    -0.56400
C880        C  0.54338533  0.14825397  0.72977640     0.27800
C881        C  0.54491118  0.15008069  0.79740947     0.27800
C882        C  0.49333771  0.02320708  0.73436052     0.27800
C883        C  0.49473424  0.02513204  0.80262285     0.27800
C884        C  0.51560029  0.10452778  0.67787490     0.36400
C885        C  0.49638643  0.05602247  0.67940668     0.36400
C886        C  0.51854924  0.10888221  0.85263121     0.36400
C887        C  0.49878635  0.06018885  0.85463990     0.36400
C888        C  0.56592328  0.18033340  0.74064609    -0.21100
C889        C  0.56685061  0.18149840  0.78346744    -0.21100
C890        C  0.49237179  0.99946542  0.74797007    -0.21100
C891        C  0.49335118  0.00072877  0.79103441    -0.21100
C892        C  0.50087632  0.09093473  0.63993330    -0.22100
C893        C  0.48831361  0.06003750  0.64107440    -0.22100
C894        C  0.50418589  0.09674713  0.89117145    -0.22100
C895        C  0.49102709  0.06563877  0.89210701    -0.22100
C896        C  0.53309240  0.13670672  0.68884658    -0.17500
C897        C  0.53633209  0.14067385  0.83939270    -0.17500
C898        C  0.49240223  0.03206018  0.84420692    -0.17500
C899        C  0.49006522  0.02829038  0.69225445    -0.17500
H900        H  0.57975604  0.20080818  0.71991456     0.15400
H901        H  0.58145927  0.20307646  0.80208808     0.15400
H902        H  0.49038962  0.98250704  0.72888582     0.15400
H903        H  0.49221982  0.98485531  0.81148640     0.15400
H904        H  0.49936639  0.10213228  0.61420377     0.13700
H905        H  0.47497851  0.04265933  0.61628624     0.13700
H906        H  0.50316726  0.10894478  0.91590336     0.13700
H907        H  0.47760486  0.04911938  0.91776958     0.13700
H908        H  0.51073071  0.10568747  0.76562158     0.27000
H909        H  0.49169967  0.05458922  0.76726181     0.27000
N910        N  0.43943400  0.94043791  0.51841775    -0.02700
C911        C  0.42731780  0.94143686  0.55423096    -0.00100
C912        C  0.40211422  0.93813494  0.54429812    -0.23000
C913        C  0.40404567  0.93956835  0.99390072    -0.23200
C914        C  0.42952877  0.94375958  0.98214141    -0.00200
H915        H  0.39008787  0.94176842  0.56505208     0.13600
H916        H  0.39180017  0.94371031  0.97480066     0.13600
C917        C  0.44956136  0.97699016  0.87180620    -0.11500
C918        C  0.47958640  0.00739770  0.87745233     0.05600
C919        C  0.49459659  0.01491708  0.91648645    -0.06700
C920        C  0.47838404  0.99301372  0.94953323    -0.07500
C921        C  0.44772803  0.96316112  0.94437476    -0.02000
C922        C  0.43357275  0.95495213  0.90465506     0.04800
N923        N  0.40254666  0.92483542  0.89731800     0.67300
H924        H  0.43763501  0.97092163  0.84222432     0.16200
H925        H  0.48946188  0.99990400  0.97990099     0.15900
N926        N  0.52568571  0.04518256  0.92360536     0.75000
O927        O  0.37954849  0.92255585  0.90222259    -0.38500
O928        O  0.39911125  0.90459041  0.87456273    -0.38400
O929        O  0.53066680  0.06285138  0.95307205    -0.39100
O930        O  0.54871045  0.05180582  0.90519155    -0.39200
C931        C  0.47714826  0.98804253  0.58903920    -0.11500
C932        C  0.44560688  0.95925321  0.59284546     0.05600
C933        C  0.43069219  0.95124670  0.63212182    -0.06700
C934        C  0.44645683  0.97304356  0.66529736    -0.06900
C935        C  0.47726676  0.00267108  0.66054128    -0.02000
C936        C  0.49327645  0.00922327  0.62273514     0.04800
N937        N  0.52544038  0.03812655  0.61751338     0.67300
H938        H  0.48903619  0.99485154  0.55923710     0.16200
H939        H  0.43393718  0.96752694  0.69423669     0.15900
N940        N  0.39897546  0.92180189  0.63824311     0.75000
O941        O  0.54650648  0.04149795  0.63657098    -0.38500
O942        O  0.53312917  0.05768948  0.58909782    -0.38400
O943        O  0.39368684  0.89732053  0.64956755    -0.39100
O944        O  0.37766227  0.92220146  0.64255754    -0.39200
C945        C  0.57921272  0.18418644  0.88515825    -0.11500
C946        C  0.54848270  0.16578197  0.87087504     0.05600
C947        C  0.53052394  0.17244090  0.88509645    -0.06700
C948        C  0.54349101  0.19727778  0.91370411    -0.07500
C949        C  0.57453390  0.21615715  0.92777092    -0.02000
C950        C  0.59240967  0.20923043  0.91327101     0.04800
N951        N  0.62360947  0.22660119  0.92777469     0.67300
H952        H  0.59307276  0.17906893  0.87423186     0.16200
H953        H  0.52939533  0.20216119  0.92434100     0.15900
N954        N  0.49932860  0.15449358  0.87021152     0.75000
O955        O  0.62780553  0.22048150  0.96328333    -0.38500
O956        O  0.64650735  0.24451118  0.90298303    -0.38400
O957        O  0.47626526  0.13502335  0.89419673    -0.39100
O958        O  0.49508526  0.16152758  0.83553400    -0.39200
C959        C  0.52813290  0.17164946  0.65198472    -0.11500
C960        C  0.54308029  0.16020761  0.65586693     0.05600
C961        C  0.56949841  0.17349783  0.63130579    -0.06700
C962        C  0.58086080  0.19817042  0.60349666    -0.07500
C963        C  0.56634855  0.21023898  0.59952688    -0.02000
C964        C  0.53935990  0.19633653  0.62380756     0.04800
N965        N  0.52281782  0.20653854  0.61984035     0.67300
H966        H  0.50783038  0.16151033  0.67117673     0.16200
H967        H  0.60168387  0.20835091  0.58556041     0.15900
N968        N  0.58592168  0.16317788  0.63591471     0.75000
O969        O  0.50249331  0.19474472  0.59155617    -0.38500
O970        O  0.52469469  0.22302766  0.64837568    -0.38400
O971        O  0.57969176  0.14180913  0.61222851    -0.39100
O972        O  0.60590063  0.17462572  0.66460549    -0.39200
C973        C  0.55528549  0.31436939  0.62486693    -0.11500
C974        C  0.58623679  0.33699295  0.60964197     0.05600
C975        C  0.60513306  0.36952018  0.62071435    -0.06700
C976        C  0.59292666  0.37867345  0.64649874    -0.07500
C977        C  0.56227891  0.35593966  0.66205577    -0.02000
C978        C  0.54333737  0.32358459  0.65112216     0.04800
N979        N  0.51203121  0.29988874  0.66678821     0.67300
H980        H  0.54030186  0.28936953  0.61642950     0.16200
H981        H  0.60770190  0.40357631  0.65532291     0.15900
N982        N  0.63647807  0.39369505  0.60540162     0.75000
O983        O  0.48980009  0.29454996  0.64801908    -0.38500
O984        O  0.50610608  0.28180852  0.69630521    -0.38400
O985        O  0.64269704  0.41399906  0.57946835    -0.39100
O986        O  0.65862291  0.39941233  0.62497565    -0.39200
C987        C  0.58242842  0.37446812  0.90118380    -0.11500
C988        C  0.55537178  0.35128063  0.87786503     0.05600
C989        C  0.54059577  0.31900652  0.88126684    -0.06700
C990        C  0.55293542  0.31042980  0.90804011    -0.07500
C991        C  0.58040493  0.33368189  0.93125277    -0.02000
C992        C  0.59533358  0.36617905  0.92710812     0.04800
N993        N  0.62442819  0.39137471  0.94733279     0.67300
H994        H  0.59456247  0.39947512  0.89753649     0.16200
H995        H  0.54094971  0.28540967  0.91044593     0.15900
N996        N  0.51343844  0.29482671  0.85696989     0.75000
O997        O  0.64974023  0.40168259  0.93136207    -0.38500
O998        O  0.62192415  0.40547221  0.49310858    -0.38400
O999        O  0.51572173  0.28271627  0.82616476    -0.39100
O1000       O  0.48664797  0.28231480  0.86988841    -0.39200
C1001       C  0.75277094  0.36441583  0.90980760    -0.11500
C1002       C  0.75643749  0.38192746  0.87561814     0.05600
C1003       C  0.73601716  0.38715441  0.87131891    -0.06700
C1004       C  0.71167758  0.37374431  0.90031749    -0.07500
C1005       C  0.70750106  0.35542718  0.93408130    -0.02000
C1006       C  0.72901223  0.35152457  0.93907729     0.04800
N1007       N  0.72711528  0.33430639  0.97350571     0.67300
H1008       H  0.76807646  0.35996752  0.91329169     0.16200
H1009       H  0.69584775  0.37744727  0.89611929     0.15900
N1010       N  0.73962103  0.40584231  0.83757881     0.75000
O1011       O  0.71254829  0.30507501  0.96933585    -0.38500
O1012       O  0.74490749  0.34949561  0.00451640    -0.38400
O1013       O  0.71848637  0.39275475  0.81019141    -0.39100
O1014       O  0.76055399  0.43597002  0.83959324    -0.39200
C1015       C  0.74293120  0.38264930  0.65770573    -0.11500
C1016       C  0.75166313  0.36523457  0.66265431     0.05600
C1017       C  0.73577100  0.33658022  0.64062068    -0.06700
C1018       C  0.71119449  0.32560313  0.61391868    -0.07500
C1019       C  0.70236240  0.34307259  0.60857548    -0.02000
C1020       C  0.71862265  0.37197071  0.63069238     0.04800
N1021       N  0.70962528  0.38979430  0.62805778     0.67300
H1022       H  0.75481226  0.40443607  0.67540297     0.16200
H1023       H  0.69919630  0.30349668  0.59698121     0.15900
N1024       N  0.74403204  0.31819782  0.64579565     0.75000
O1025       O  0.69484003  0.38862606  0.65813982    -0.38500
O1026       O  0.72294516  0.41217497  0.60174084    -0.38400
O1027       O  0.73347297  0.29943253  0.67647111    -0.39100
O1028       O  0.76383604  0.32260366  0.62161897    -0.39200
C1029       C  0.45645975  0.41518711  0.62687195    -0.11500
C1030       C  0.47341502  0.43016418  0.58967862     0.05600
C1031       C  0.50565336  0.44667037  0.58874674    -0.06700
C1032       C  0.51960436  0.44596703  0.62371628    -0.07500
C1033       C  0.50162590  0.42788405  0.65901048    -0.02000
C1034       C  0.47015140  0.41355372  0.66121947     0.04800
N1035       N  0.45087939  0.39417228  0.69621055     0.67300
H1036       H  0.43164492  0.40214007  0.62784329     0.16200
H1037       H  0.54381198  0.45700505  0.62183043     0.15900
N1038       N  0.52333912  0.46011995  0.55089424     0.75000
O1039       O  0.44202612  0.40371560  0.72138799    -0.38500
O1040       O  0.44219357  0.36719825  0.70157449    -0.38400
O1041       O  0.54474797  0.49012447  0.54718442    -0.39100
O1042       O  0.52270797  0.44247382  0.52613531    -0.39200
C1043       C  0.50456132  0.45134946  0.93971708    -0.11500
C1044       C  0.47165095  0.43004749  0.94291418     0.05600
C1045       C  0.45335820  0.41108496  0.90783603    -0.06700
C1046       C  0.46754505  0.41008526  0.87347102    -0.07500
C1047       C  0.49988099  0.42836329  0.87284346    -0.02000
C1048       C  0.51874486  0.45085504  0.90466377     0.04800
N1049       N  0.55213986  0.47206786  0.90254359     0.67300
H1050       H  0.51920874  0.46688108  0.96549369     0.16200
H1051       H  0.45299309  0.39344718  0.84832775     0.15900
N1052       N  0.42002751  0.39088968  0.90793729     0.75000
O1053       O  0.56755463  0.49666024  0.87971354    -0.38500
O1054       O  0.56585580  0.46451283  0.91968097    -0.38400
O1055       O  0.40859806  0.40215657  0.89568605    -0.39100
O1056       O  0.40256715  0.36092180  0.90947506    -0.39200
C1057       C  0.92354801  0.43313771  0.59231093    -0.11500
C1058       C  0.95202959  0.46505557  0.59664264     0.05600
C1059       C  0.95944897  0.47978600  0.63613417    -0.06700
C1060       C  0.93693776  0.46415579  0.66807614    -0.07500
C1061       C  0.90732360  0.43339541  0.66218327    -0.02000
C1062       C  0.90145339  0.41707219  0.62471975     0.04800
N1063       N  0.87260936  0.38471709  0.61844245     0.67300
H1064       H  0.91779042  0.42083145  0.56311136     0.16200
H1065       H  0.94212804  0.47674455  0.69705891     0.15900
N1066       N  0.98912024  0.51132570  0.64351461     0.75000
O1067       O  0.86733144  0.36249868  0.63871656    -0.38500
O1068       O  0.85522761  0.37784728  0.58795198    -0.38400
O1069       O  0.99016632  0.53324091  0.65487009    -0.39100
O1070       O  0.01338833  0.51561381  0.64665251    -0.39200
C1071       C  0.95517018  0.48021190  0.91294354    -0.11500
C1072       C  0.94404937  0.46150192  0.94939128     0.05600
C1073       C  0.91412436  0.42984607  0.94851631    -0.06700
C1074       C  0.89547309  0.41879648  0.91273787    -0.07500
C1075       C  0.90579195  0.43862618  0.87785080    -0.02000
C1076       C  0.93643934  0.46901173  0.87733817     0.04800
N1077       N  0.94815480  0.48950647  0.84177854     0.67300
H1078       H  0.97812617  0.50425480  0.91250885     0.16200
H1079       H  0.87199076  0.39519275  0.91303529     0.15900
N1080       N  0.90132369  0.40913599  0.98408710     0.75000
O1081       O  0.94114742  0.50594965  0.83662325    -0.38500
O1082       O  0.96899146  0.49467779  0.81910600    -0.38400
O1083       O  0.89235718  0.41891225  0.50149737    -0.39100
O1084       O  0.89455505  0.38295943  0.98116846    -0.39200
C1085       C  0.03183332  0.47876692  0.89830672    -0.11500
C1086       C  0.01914650  0.45489031  0.86869583     0.05600
C1087       C  0.98676170  0.42782823  0.86953903    -0.06700
C1088       C  0.96861129  0.42364136  0.90277334    -0.07500
C1089       C  0.98263991  0.44438842  0.93757154    -0.02000
C1090       C  0.01442308  0.47409061  0.93292479     0.04800
N1091       N  0.02977875  0.50079755  0.96041437     0.67300
H1092       H  0.05615038  0.50100272  0.89525766     0.16200
H1093       H  0.94416103  0.40145614  0.90428838     0.15900
N1094       N  0.97271573  0.40278853  0.83955678     0.75000
O1095       O  0.05711917  0.51455428  0.97235500    -0.38500
O1096       O  0.02419936  0.51838624  0.95502089    -0.38400
O1097       O  0.97462718  0.38219455  0.84440529    -0.39100
O1098       O  0.95437196  0.39828129  0.81238615    -0.39200
C1099       C  0.03420615  0.47558051  0.62174735    -0.11500
C1100       C  0.01980820  0.45183884  0.65241820     0.05600
C1101       C  0.98730366  0.42489775  0.64994057    -0.06700
C1102       C  0.97047369  0.42087586  0.61498404    -0.07500
C1103       C  0.98560414  0.44338569  0.58234852    -0.02000
C1104       C  0.01755745  0.47137233  0.58665173     0.04800
N1105       N  0.03469022  0.49323947  0.55289983     0.67300
H1106       H  0.05913179  0.49653119  0.62365626     0.16200
H1107       H  0.94605211  0.39894260  0.61177906     0.15900
N1108       N  0.97170763  0.40026506  0.68087432     0.75000
O1109       O  0.04306057  0.52023983  0.55502311    -0.38500
O1110       O  0.04822720  0.48903764  0.52751297    -0.38400
O1111       O  0.95436440  0.39811841  0.70756490    -0.39100
O1112       O  0.97066729  0.37754227  0.67686565    -0.39200
C1113       C  0.37759760  0.56292073  0.88141549    -0.11500
C1114       C  0.35829528  0.53005392  0.87413545     0.05600
C1115       C  0.32906131  0.50826752  0.89444612    -0.06700
C1116       C  0.31926186  0.51959917  0.92095361    -0.07500
C1117       C  0.33860964  0.55252137  0.92863275    -0.02000
C1118       C  0.36826257  0.57428874  0.90888893     0.04800
N1119       N  0.38881567  0.60799767  0.91551731     0.67300
H1120       H  0.40007856  0.57981627  0.86568548     0.16200
H1121       H  0.29670634  0.50247114  0.93644473     0.15900
N1122       N  0.30926044  0.47458557  0.88868610     0.75000
O1123       O  0.40828234  0.62081896  0.94511113    -0.38500
O1124       O  0.39199914  0.62544335  0.88726604    -0.38400
O1125       O  0.31051782  0.45870480  0.91435684    -0.39100
O1126       O  0.28693043  0.46008507  0.86296073    -0.39200
C1127       C  0.36578896  0.57337812  0.62831061    -0.11500
C1128       C  0.34060516  0.55089683  0.60134189     0.05600
C1129       C  0.32627646  0.51851178  0.60405977    -0.06700
C1130       C  0.33736591  0.50958953  0.63280811    -0.07500
C1131       C  0.36231069  0.53215364  0.65957610    -0.02000
C1132       C  0.37654981  0.56425554  0.65721511     0.04800
N1133       N  0.40206163  0.58787259  0.68407441     0.67300
H1134       H  0.37733704  0.59830464  0.62707157     0.16200
H1135       H  0.32600260  0.48473715  0.63487690     0.15900
N1136       N  0.30012513  0.49418158  0.57848479     0.75000
O1137       O  0.42977398  0.60200139  0.67347639    -0.38500
O1138       O  0.39736455  0.59762680  0.71532857    -0.38400
O1139       O  0.30404911  0.48327228  0.54788205    -0.39100
O1140       O  0.27266001  0.47983949  0.59070103    -0.39200
C1141       C  0.17777692  0.49405327  0.88147648    -0.11500
C1142       C  0.16874798  0.51064255  0.87087367     0.05600
C1143       C  0.18521300  0.54121552  0.88776229    -0.06700
C1144       C  0.21014228  0.55462854  0.91534395    -0.07500
C1145       C  0.21916561  0.53799289  0.92651475    -0.02000
C1146       C  0.20271541  0.50737971  0.90906614     0.04800
N1147       N  0.21189301  0.49011502  0.91755581     0.67300
H1148       H  0.16574197  0.47088476  0.86763331     0.16200
H1149       H  0.22232521  0.57808208  0.92829761     0.15900
N1150       N  0.17739422  0.55925089  0.87604156     0.75000
O1151       O  0.19765813  0.46866499  0.94531185    -0.38500
O1152       O  0.21096910  0.48089355  0.41712365    -0.38400
O1153       O  0.15785293  0.55725115  0.89737704    -0.39100
O1154       O  0.18836982  0.57546817  0.84279156    -0.39200
C1155       C  0.20263676  0.54183978  0.60571264    -0.11500
C1156       C  0.21553521  0.52828795  0.59970882     0.05600
C1157       C  0.20198286  0.49965014  0.62102252    -0.06700
C1158       C  0.17691767  0.48607044  0.64878232    -0.07500
C1159       C  0.16456734  0.50008970  0.65461336    -0.02000
C1160       C  0.17737825  0.52794678  0.63251820     0.04800
N1161       N  0.16578409  0.54319655  0.63848597     0.67300
H1162       H  0.21239157  0.56375033  0.58989601     0.16200
H1163       H  0.16711837  0.46462628  0.66597463     0.15900
N1164       N  0.21278472  0.48371647  0.61422105     0.75000
O1165       O  0.17931396  0.56609162  0.66392385    -0.38500
O1166       O  0.14573916  0.53751579  0.61352983    -0.38400
O1167       O  0.22663402  0.48247195  0.64313536    -0.39100
O1168       O  0.20392639  0.46651831  0.58221586    -0.39200
C1169       C  0.34757314  0.70575525  0.64917983    -0.11500
C1170       C  0.37774850  0.72282291  0.66488496     0.05600
C1171       C  0.39385778  0.71333438  0.65393912    -0.06700
C1172       C  0.37992947  0.68745061  0.62667730    -0.07500
C1173       C  0.34952343  0.67009074  0.61086485    -0.02000
C1174       C  0.33321576  0.67937418  0.62288370     0.04800
N1175       N  0.30222609  0.66263930  0.60817829     0.67300
H1176       H  0.33481244  0.71256209  0.65818963     0.16200
H1177       H  0.39285552  0.68076831  0.61807968     0.15900
N1178       N  0.42415380  0.72951846  0.67092512     0.75000
O1179       O  0.27886834  0.63960870  0.62919393    -0.38500
O1180       O  0.29825113  0.67421170  0.57866458    -0.38400
O1181       O  0.42649351  0.71933917  0.70408297    -0.39100
O1182       O  0.44812637  0.75601149  0.65581263    -0.39200
C1183       C  0.36419869  0.72281166  0.90919344    -0.11500
C1184       C  0.38674353  0.73005294  0.88110809     0.05600
C1185       C  0.39530596  0.71210819  0.88254966    -0.06700
C1186       C  0.38051228  0.68668894  0.91091974    -0.07500
C1187       C  0.35711015  0.67863041  0.93837384    -0.02000
C1188       C  0.34954030  0.69763885  0.93779680     0.04800
N1189       N  0.32693455  0.69178640  0.96579953     0.67300
H1190       H  0.35736850  0.73638578  0.90822875     0.16200
H1191       H  0.38715013  0.67294882  0.91096100     0.15900
N1192       N  0.41874547  0.71921339  0.85503774     0.75000
O1193       O  0.33555435  0.70460756  0.00142918    -0.38500
O1194       O  0.30029106  0.67921479  0.95227020    -0.38400
O1195       O  0.44664556  0.73669776  0.86770475    -0.39100
O1196       O  0.41054903  0.70289920  0.82228313    -0.39200
C1197       C  0.49043361  0.50008000  0.91011423    -0.11500
C1198       C  0.47406503  0.48393154  0.94726382     0.05600
C1199       C  0.44130342  0.46527579  0.94849002    -0.06700
C1200       C  0.42618345  0.46461216  0.91387755    -0.07500
C1201       C  0.44317283  0.48328403  0.87844982    -0.02000
C1202       C  0.47545787  0.50031887  0.87613060     0.04800
N1203       N  0.49395541  0.52047919  0.84122771     0.67300
H1204       H  0.51558800  0.51476596  0.90875825     0.16200
H1205       H  0.40132940  0.45128814  0.91588950     0.15900
N1206       N  0.42361844  0.45020541  0.98603992     0.75000
O1207       O  0.50313065  0.54784953  0.83890768    -0.38500
O1208       O  0.50546462  0.51331484  0.81689067    -0.38400
O1209       O  0.42078141  0.46561836  0.01013393    -0.39100
O1210       O  0.40395108  0.42006666  0.98851495    -0.39200
C1211       C  0.44209319  0.46115463  0.59487003    -0.11500
C1212       C  0.47514618  0.48366030  0.59399000     0.05600
C1213       C  0.49153019  0.50222330  0.63023537    -0.06700
C1214       C  0.47512069  0.50072560  0.66388288    -0.07500
C1215       C  0.44242631  0.48024836  0.66292331    -0.02000
C1216       C  0.42571160  0.45893468  0.62928039     0.04800
N1217       N  0.39214915  0.43598975  0.62906403     0.67300
H1218       H  0.42884358  0.44603207  0.56821632     0.16200
H1219       H  0.48808850  0.51667975  0.69018022     0.15900
N1220       N  0.52501398  0.52400334  0.63241668     0.75000
O1221       O  0.37759341  0.43812480  0.60260884    -0.38500
O1222       O  0.37700269  0.41410987  0.65624365    -0.38400
O1223       O  0.54092349  0.55311417  0.64074556    -0.39100
O1224       O  0.53816599  0.51330638  0.63268978    -0.39200
C1225       C  0.43791881  0.89814104  0.94132123    -0.11500
C1226       C  0.46926927  0.92756657  0.94307887     0.05600
C1227       C  0.48882168  0.93690097  0.90798252    -0.06700
C1228       C  0.47791413  0.91563732  0.87473206    -0.07500
C1229       C  0.44756911  0.88522925  0.87516456    -0.02000
C1230       C  0.42689004  0.87707808  0.90768234     0.04800
N1231       N  0.39492377  0.84708387  0.90732430     0.67300
H1232       H  0.42204258  0.89088592  0.96670771     0.16200
H1233       H  0.49365250  0.92245075  0.84912469     0.15900
N1234       N  0.52000641  0.96767927  0.90569499     0.75000
O1235       O  0.38349796  0.82883920  0.93870763    -0.38500
O1236       O  0.37805720  0.83865179  0.87550837    -0.38400
O1237       O  0.54293408  0.96970690  0.90910302    -0.39100
O1238       O  0.52422513  0.98992125  0.88740998    -0.39200
C1239       C  0.48178697  0.93180295  0.62332989    -0.11500
C1240       C  0.46231638  0.92017134  0.58816182     0.05600
C1241       C  0.43188589  0.88915921  0.58991289    -0.06700
C1242       C  0.42248801  0.87006671  0.62531440    -0.07500
C1243       C  0.44337319  0.88043345  0.65821351    -0.02000
C1244       C  0.47298083  0.91203467  0.65769641     0.04800
N1245       N  0.49550569  0.92330653  0.68980020     0.67300
H1246       H  0.50524085  0.95542919  0.62240430     0.16200
H1247       H  0.39951993  0.84595940  0.62570759     0.15900
N1248       N  0.41172498  0.87488721  0.55441558     0.75000
O1249       O  0.50816818  0.91214026  0.69258826    -0.38500
O1250       O  0.50632192  0.94768086  0.71080990    -0.38400
O1251       O  0.41359662  0.85907868  0.52955693    -0.39100
O1252       O  0.38677353  0.86950641  0.55531647    -0.39200
loop_ 
_geom_bond_atom_site_label_1 
_geom_bond_atom_site_label_2 
_geom_bond_distance 
_geom_bond_site_symmetry_2 
_ccdc_geom_bond_type 
N1            C5   1.368       .  A
N1          C628   1.362       .  A
N1          N910   1.429       .  S
C2          N627   1.361       .  A
C2            C3   1.378       .  A
C2          C614   1.487       .  S
C3          C630   1.368   1_554  A
C3            H6   1.083       .  S
C4            C5   1.386       .  A
C4          C629   1.366       .  A
C4            H7   1.079       .  S
C5          C600   1.493       .  S
N8           C12   1.368       .  A
N8          C635   1.362   1_554  A
N8          N153   1.427       .  S
C9          N634   1.361       .  A
C9          C636   1.379       .  A
C9          C572   1.484       .  S
C10          C11   1.369   1_556  A
C10         C635   1.380       .  A
C10         H639   1.083       .  S
C11          C12   1.386       .  A
C11          H14   1.081       .  S
C12         C586   1.498       .  S
H13         C636   1.083       .  S
N15          C20   1.350       .  A
N15          C19   1.350       .  A
N15          H47   1.040       .  S
N16          C23   1.351       .  A
N16          C24   1.351       .  A
N17          C22   1.351       .  A
N17          C21   1.351       .  A
N17          H48   1.041       .  S
N18          C25   1.350       .  A
N18          C26   1.351       .  A
C19          C27   1.387       .  A
C19          C35   1.410       .  A
C20          C36   1.410       .  A
C20          C28   1.388       .  A
C21          C29   1.387       .  A
C21          C38   1.409       .  A
C22          C37   1.411       .  A
C22          C30   1.387       .  A
C23          C35   1.418       .  A
C23          C31   1.389       .  A
C24          C38   1.409       .  A
C24          C32   1.383       .  A
C25          C33   1.388       .  A
C25          C36   1.415       .  A
C26          C34   1.385       .  A
C26          C37   1.411       .  A
C27          C28   1.377       .  A
C27          H39   1.083       .  S
C28          H40   1.083       .  S
C29          C30   1.374       .  A
C29          H41   1.082       .  S
C30          H42   1.082       .  S
C31          C32   1.375       .  A
C31          H43   1.082       .  S
C32          H44   1.082       .  S
C33          C34   1.375       .  A
C33          H45   1.082       .  S
C34          H46   1.082       .  S
C35         C617   1.490       .  S
C36         C603   1.482       .  S
C37         C558   1.487       .  S
C38         C544   1.481       .  S
O49         Cr67   1.998       .  S
O49          C57   1.265       .  A
O50         Cr67   1.974       .  S
O50          C51   1.260       .  A
C51         C547   1.485       .  S
C51          O52   1.268       .  A
O52         Cr68   2.012       .  S
O53         Cr68   1.986       .  S
O53          C54   1.263       .  A
C54         C502   1.493       .  S
C54          O55   1.263       .  A
O55         Cr69   2.001       .  S
O56         Cr69   1.991       .  S
O56          C57   1.262       .  A
C57         C530   1.492       .  S
O58        Cr693   1.976       .  S
O58          C66   1.263       .  A
O59        Cr693   1.985       .  S
O59          C60   1.258       .  A
C60         C561   1.489       .  S
C60          O61   1.263       .  A
O61        Cr694   1.995       .  S
O62        Cr694   2.013       .  S
O62          C63   1.267       .  A
C63         C491   1.479       .  S
C63          O64   1.261       .  A
O64        Cr695   1.976       .  S
O65        Cr695   2.016       .  S
O65          C66   1.269       .  A
C66         C519   1.492       .  S
Cr67        O684   1.979   1_554  S
Cr67        O685   2.002   1_554  S
Cr67         O70   1.772       .  S
Cr68        O687   1.987   1_554  S
Cr68        O688   2.011   1_554  S
Cr68         O70   1.777       .  S
Cr69        O690   1.975   1_554  S
Cr69        O691   2.011   1_554  S
Cr69         O70   1.777       .  S
N71          C76   1.351       .  A
N71          C75   1.352       .  A
N71         H103   1.037       .  S
N72          C79   1.352       .  A
N72          C80   1.353       .  A
N73          C78   1.353       .  A
N73          C77   1.351       .  A
N73         H104   1.037       .  S
N74          C81   1.352       .  A
N74          C82   1.354       .  A
C75          C83   1.386       .  A
C75          C91   1.412       .  A
C76          C92   1.412       .  A
C76          C84   1.387       .  A
C77          C85   1.388       .  A
C77          C94   1.413       .  A
C78          C93   1.411       .  A
C78          C86   1.386       .  A
C79          C91   1.418       .  A
C79          C87   1.387       .  A
C80          C94   1.415       .  A
C80          C88   1.385       .  A
C81          C89   1.389       .  A
C81          C92   1.420       .  A
C82          C90   1.384       .  A
C82          C93   1.413       .  A
C83          C84   1.377       .  A
C83          H95   1.082       .  S
C84          H96   1.083       .  S
C85          C86   1.375       .  A
C85          H97   1.082       .  S
C86          H98   1.082       .  S
C87          C88   1.376       .  A
C87          H99   1.082       .  S
C88         H100   1.082       .  S
C89          C90   1.374       .  A
C89         H101   1.082       .  S
C90         H102   1.082       .  S
C91         C589   1.488       .  S
C92         C575   1.490       .  S
C93         C488   1.490       .  S
C94         C505   1.488       .  S
N105        C110   1.352       .  A
N105        C109   1.354       .  A
N105        H137   1.040       .  S
N106        C113   1.350       .  A
N106        C114   1.350       .  A
N107        C112   1.351       .  A
N107        C111   1.350       .  A
N107        H138   1.042       .  S
N108        C115   1.352       .  A
N108        C116   1.352       .  A
C109        C117   1.388       .  A
C109        C125   1.416       .  A
C110        C126   1.412       .  A
C110        C118   1.386       .  A
C111        C119   1.385       .  A
C111        C128   1.408       .  A
C112        C127   1.406       .  A
C112        C120   1.385       .  A
C113        C125   1.413       .  A
C113        C121   1.386       .  A
C114        C128   1.412       .  A
C114        C122   1.386       .  A
C115        C123   1.384       .  A
C115        C126   1.411       .  A
C116        C124   1.388       .  A
C116        C127   1.417       .  A
C117        C118   1.373       .  A
C117        H129   1.082       .  S
C118        H130   1.082       .  S
C119        C120   1.374       .  A
C119        H131   1.080       .  S
C120        H132   1.083       .  S
C121        C122   1.376       .  A
C121        H133   1.082       .  S
C122        H134   1.082       .  S
C123        C124   1.375       .  A
C123        H135   1.082       .  S
C124        H136   1.082       .  S
C125        C533   1.491       .  S
C126        C516   1.484       .  S
C127        C460   1.492       .  S
C128        C474   1.482       .  S
N139        C143   1.370       .  A
N139        C766   1.370   1_554  A
N139        N146   1.431       .  S
C140        N765   1.368       .  A
C140        C767   1.387       .  A
C140        C463   1.498       .  S
C141        C142   1.360   1_556  A
C141        C766   1.386       .  A
C141        H770   1.083       .  S
C142        C143   1.380       .  A
C142        H145   1.083       .  S
C143        C477   1.487       .  S
H144        C767   1.083       .  S
N146        C150   1.368       .  A
N146        C773   1.355   1_554  A
C147        N772   1.365       .  A
C147        C774   1.381       .  A
C147        C446   1.493       .  S
C148        C149   1.372       .  A
C148        C773   1.379   1_554  A
C148        H777   1.082   1_554  S
C149        C150   1.387       .  A
C149        H152   1.083       .  S
C150        C432   1.504       .  S
H151        C774   1.082       .  S
N153        C157   1.362       .  A
N153        C780   1.367   1_554  A
C154        N779   1.370       .  A
C154        C781   1.386       .  A
C154        C418   1.500       .  S
C155        C156   1.366   1_556  A
C155        C780   1.385       .  A
C155        H784   1.081       .  S
C156        C157   1.378       .  A
C156        H159   1.083       .  S
C157        C404   1.482       .  S
H158        C781   1.081       .  S
N160        C165   1.350       .  A
N160        C164   1.350       .  A
N160        H192   1.038       .  S
N161        C168   1.354       .  A
N161        C169   1.352       .  A
N162        C167   1.357       .  A
N162        C166   1.355       .  A
N162        H193   1.039       .  S
N163        C170   1.351       .  A
N163        C171   1.350       .  A
C164        C172   1.386       .  A
C164        C180   1.408       .  A
C165        C181   1.412       .  A
C165        C173   1.388       .  A
C166        C174   1.387       .  A
C166        C183   1.419       .  A
C167        C182   1.423       .  A
C167        C175   1.387       .  A
C168        C180   1.410       .  A
C168        C176   1.383       .  A
C169        C183   1.420       .  A
C169        C177   1.391       .  A
C170        C178   1.385       .  A
C170        C181   1.410       .  A
C171        C179   1.387       .  A
C171        C182   1.414       .  A
C172        C173   1.373       .  A
C172        H184   1.082       .  S
C173        H185   1.082       .  S
C174        C175   1.374       .  A
C174        H186   1.080       .  S
C175        H187   1.081       .  S
C176        C177   1.368       .  A
C176        H188   1.083       .  S
C177        H189   1.081       .  S
C178        C179   1.372       .  A
C178        H190   1.082       .  S
C179        H191   1.082       .  S
C180        C376   1.481       .  S
C181        C390   1.481       .  S
C182        C435   1.499       .  S
C183        C449   1.491       .  S
N194        C199   1.354       .  A
N194        C198   1.351       .  A
N194        H226   1.042       .  S
N195        C202   1.353       .  A
N195        C203   1.354       .  A
N196        C201   1.351       .  A
N196        C200   1.352       .  A
N196        H227   1.041       .  S
N197        C204   1.353       .  A
N197        C205   1.351       .  A
C198        C206   1.388       .  A
C198        C214   1.415       .  A
C199        C215   1.413       .  A
C199        C207   1.386       .  A
C200        C208   1.386       .  A
C200        C217   1.413       .  A
C201        C216   1.414       .  A
C201        C209   1.388       .  A
C202        C214   1.415       .  A
C202        C210   1.385       .  A
C203        C217   1.419       .  A
C203        C211   1.387       .  A
C204        C212   1.384       .  A
C204        C215   1.411       .  A
C205        C213   1.389       .  A
C205        C216   1.418       .  A
C206        C207   1.374       .  A
C206        H218   1.082       .  S
C207        H219   1.082       .  S
C208        C209   1.378       .  A
C208        H220   1.082       .  S
C209        H221   1.083       .  S
C210        C211   1.375       .  A
C210        H222   1.082       .  S
C211        H223   1.082       .  S
C212        C213   1.371       .  A
C212        H224   1.082       .  S
C213        H225   1.082       .  S
C214        C362   1.488       .  S
C215        C351   1.488       .  S
C216        C407   1.486       .  S
C217        C421   1.490       .  S
O228       Cr246   1.967       .  S
O228        C236   1.261       .  A
O229       Cr246   1.984       .  S
O229        C230   1.258       .  A
C230        C337   1.490       .  S
C230        O231   1.263       .  A
O231       Cr247   2.000       .  S
O232       Cr247   2.013       .  S
O232        C233   1.269       .  A
C233        C348   1.488       .  S
C233        O234   1.261       .  A
O234       Cr248   1.974       .  S
O235       Cr248   2.012       .  S
O235        C236   1.268       .  A
C236        C393   1.480       .  S
O237       Cr872   1.989       .  S
O237        C245   1.261       .  A
O238       Cr872   1.973       .  S
O238        C239   1.260       .  A
C239        C323   1.483       .  S
C239        O240   1.267       .  A
O240       Cr873   2.013       .  S
O241       Cr873   1.988       .  S
O241        C242   1.266       .  A
C242        C365   1.492       .  S
C242        O243   1.264       .  A
O243       Cr874   2.000       .  S
O244       Cr874   1.986       .  S
O244        C245   1.261       .  A
C245        C379   1.476       .  S
Cr246       O863   1.984   1_554  S
Cr246       O864   1.962   1_554  S
Cr246       O249   1.765       .  S
Cr247       O866   2.021   1_554  S
Cr247       O867   1.986   1_554  S
Cr247       O249   1.774       .  S
Cr248       O869   2.002   1_554  S
Cr248       O870   1.997   1_554  S
Cr248       O249   1.773       .  S
N250        C255   1.351       .  A
N250        C254   1.349       .  A
N250        H282   1.040       .  S
N251        C258   1.353       .  A
N251        C259   1.352       .  A
N252        C257   1.355       .  A
N252        C256   1.356       .  A
N252        H283   1.039       .  S
N253        C260   1.353       .  A
N253        C261   1.351       .  A
C254        C262   1.387       .  A
C254        C270   1.408       .  A
C255        C271   1.408       .  A
C255        C263   1.387       .  A
C256        C264   1.386   1_545  A
C256        C273   1.420       .  A
C257        C272   1.421       .  A
C257        C265   1.388   1_545  A
C258        C270   1.412       .  A
C258        C266   1.384       .  A
C259        C273   1.419       .  A
C259        C267   1.388       .  A
C260        C268   1.383       .  A
C260        C271   1.410       .  A
C261        C269   1.389       .  A
C261        C272   1.419       .  A
C262        C263   1.374       .  A
C262        H274   1.082       .  S
C263        H275   1.082       .  S
C264        C265   1.379       .  A
C264        H276   1.081       .  S
C265        H277   1.082       .  S
C266        C267   1.374       .  A
C266        H278   1.082       .  S
C267        H279   1.082       .  S
C268        C269   1.375       .  A
C268        H280   1.082       .  S
C269        H281   1.082       .  S
C270        C334   1.482       .  S
C271        C320   1.484       .  S
C272        C292   1.496       .  S
C273        C309   1.500       .  S
N284        C285   1.369       .  A
N284        C914   1.364   1_554  A
N284        N627   1.429       .  S
C285        C286   1.382       .  A
C285        C306   1.496       .  S
C286        C913   1.369   1_554  A
C286        H289   1.081       .  S
C287        C288   1.382       .  A
C287        C912   1.370       .  A
C287        H290   1.081       .  S
C288        N910   1.365       .  A
C288        C295   1.488       .  S
C291        C292   1.404   1_565  A
C291        C296   1.401       .  A
C291        H298   1.084       .  S
C292        C293   1.414       .  A
C293        C294   1.401   1_545  A
C293        N300   1.433       .  S
C294        C295   1.405       .  A
C294        H299   1.083       .  S
C295        C296   1.414       .  A
C296        N297   1.430       .  S
N297        O301   1.262       .  A
N297        O302   1.261       .  A
N300        O304   1.262       .  A
N300        O303   1.262       .  A
C305        C306   1.406       .  A
C305        C310   1.402   1_565  A
C305        H312   1.083       .  S
C306        C307   1.417       .  A
C307        C308   1.404       .  A
C307        N314   1.430       .  S
C308        C309   1.402   1_565  A
C308        H313   1.084       .  S
C309        C310   1.412       .  A
C310        N311   1.430       .  S
N311        O315   1.262       .  A
N311        O316   1.262       .  A
N314        O318   1.262       .  A
N314        O317   1.261       .  A
C319        C320   1.399       .  A
C319        C324   1.403       .  A
C319        H326   1.084       .  S
C320        C321   1.406       .  A
C321        C322   1.400       .  A
C321        N328   1.428       .  S
C322        C323   1.406       .  A
C322        H327   1.084       .  S
C323        C324   1.420       .  A
C324        N325   1.436       .  S
N325        O329   1.262       .  A
N325        O330   1.263       .  A
N328        O332   1.262       .  A
N328        O331   1.262       .  A
C333        C334   1.403       .  A
C333        C338   1.404       .  A
C333        H340   1.084       .  S
C334        C335   1.402       .  A
C335        C336   1.396       .  A
C335        N342   1.430       .  S
C336        C337   1.412       .  A
C336        H341   1.083       .  S
C337        C338   1.414       .  A
C338        N339   1.428       .  S
N339        O343   1.262       .  A
N339        O344   1.262       .  A
N342        O346   1.262       .  A
N342        O345   1.262       .  A
C347        C348   1.407       .  A
C347        C352   1.402       .  A
C347        H354   1.084       .  S
C348        C349   1.417       .  A
C349        C350   1.401       .  A
C349        N356   1.429       .  S
C350        C351   1.400       .  A
C350        H355   1.084       .  S
C351        C352   1.408       .  A
C352        N353   1.429       .  S
N353        O357   1.262       .  A
N353        O358   1.262       .  A
N356        O360   1.262       .  A
N356        O359   1.262       .  A
C361        C362   1.398       .  A
C361        C366   1.400       .  A
C361        H368   1.084       .  S
C362        C363   1.408       .  A
C363        C364   1.401       .  A
C363        N370   1.429       .  S
C364        C365   1.407       .  A
C364        H369   1.083       .  S
C365        C366   1.421       .  A
C366        N367   1.429       .  S
N367        O371   1.262       .  A
N367        O998   1.262       .  A
N370        O374   1.262       .  A
N370        O373   1.262       .  A
O372        N993   1.262       .  A
C375        C376   1.396       .  A
C375        C380   1.392       .  A
C375        H382   1.084       .  S
C376        C377   1.408       .  A
C377        C378   1.405       .  A
C377        N384   1.428       .  S
C378        C379   1.406       .  A
C378        H383   1.084       .  S
C379        C380   1.412       .  A
C380        N381   1.428       .  S
N381        O385   1.261       .  A
N381        O386   1.262       .  A
N384        O388   1.262       .  A
N384        O387   1.262       .  A
C389        C390   1.399       .  A
C389        C394   1.397       .  A
C389        H396   1.084       .  S
C390        C391   1.407       .  A
C391        C392   1.398       .  A
C391        N398   1.430       .  S
C392        C393   1.406       .  A
C392        H397   1.084       .  S
C393        C394   1.417       .  A
C394        N395   1.430       .  S
N395        O399   1.262       .  A
N395        O400   1.262       .  A
N398        O402   1.262       .  A
N398        O401   1.262       .  A
C403        C404   1.404       .  A
C403        C408   1.398       .  A
C403        H410   1.084       .  S
C404        C405   1.414       .  A
C405        C406   1.401       .  A
C405        N412   1.428       .  S
C406        C407   1.402       .  A
C406        H411   1.084       .  S
C407        C408   1.409       .  A
C408        N409   1.430       .  S
N409        O413   1.261       .  A
N409        O414   1.262       .  A
N412        O416   1.262       .  A
N412        O415   1.262       .  A
C417        C418   1.410       .  A
C417        C422   1.405       .  A
C417        H424   1.080       .  S
C418        C419   1.418       .  A
C419        C420   1.401       .  A
C419        N426   1.431       .  S
C420        C421   1.398       .  A
C420        H425   1.084       .  S
C421        C422   1.406       .  A
C422        N423   1.428       .  S
N423        O427   1.262       .  A
N423        O428   1.261       .  A
N426        O430   1.262       .  A
N426        O429   1.261       .  A
C431        C432   1.404       .  A
C431        C436   1.406       .  A
C431        H438   1.073       .  S
C432        C433   1.428       .  A
C433        C434   1.397       .  A
C433        N440   1.433       .  S
C434        C435   1.399       .  A
C434        H439   1.084       .  S
C435        C436   1.410       .  A
C436        N437   1.430       .  S
N437        O441   1.260       .  A
N437        O442   1.262       .  A
N440        O444   1.262       .  A
N440        O443   1.261       .  A
C445        C446   1.408       .  A
C445        C450   1.399       .  A
C445        H452   1.083       .  S
C446        C447   1.415       .  A
C447        C448   1.400       .  A
C447        N454   1.429       .  S
C448        C449   1.403       .  A
C448        H453   1.084       .  S
C449        C450   1.410       .  A
C450        N451   1.433       .  S
N451        O455   1.262       .  A
N451        O456   1.262       .  A
N454        O458   1.262       .  A
N454       O1083   1.261       .  A
O457       N1080   1.260   1_554  A
C459        C460   1.398       .  A
C459        C464   1.402       .  A
C459        H466   1.084       .  S
C460        C461   1.409   1_455  A
C461        C462   1.399       .  A
C461        N468   1.431       .  S
C462        C463   1.410       .  A
C462        H467   1.085       .  S
C463        C464   1.422   1_655  A
C464        N465   1.431       .  S
N465        O469   1.262       .  A
N465        O470   1.260       .  A
N468        O472   1.262       .  A
N468        O471   1.262       .  A
C473        C474   1.392       .  A
C473        C478   1.393       .  A
C473        H480   1.085       .  S
C474        C475   1.408   1_455  A
C475        C476   1.404       .  A
C475        N482   1.428       .  S
C476        C477   1.410       .  A
C476        H481   1.084       .  S
C477        C478   1.411   1_655  A
C478        N479   1.417       .  S
N479        O483   1.262       .  A
N479        O484   1.262       .  A
N482        O486   1.262       .  A
N482        O485   1.261       .  A
C487        C488   1.403       .  A
C487        C492   1.402       .  A
C487        H494   1.084       .  S
C488        C489   1.409       .  A
C489        C490   1.403       .  A
C489        N496   1.429       .  S
C490        C491   1.405       .  A
C490        H495   1.084       .  S
C491        C492   1.409       .  A
C492        N493   1.428       .  S
N493        O497   1.262       .  A
N493        O498   1.262       .  A
N496        O500   1.262       .  A
N496        O499   1.262       .  A
C501        C502   1.407       .  A
C501        C506   1.402       .  A
C501        H508   1.083       .  S
C502        C503   1.421       .  A
C503        C504   1.400       .  A
C503        N510   1.429       .  S
C504        C505   1.398       .  A
C504        H509   1.084       .  S
C505        C506   1.409       .  A
C506        N507   1.429       .  S
N507        O511   1.262       .  A
N507        O512   1.262       .  A
N510        O514   1.262       .  A
N510        O513   1.262       .  A
C515        C516   1.398       .  A
C515        C520   1.400       .  A
C515        H522   1.084       .  S
C516        C517   1.406       .  A
C517        C518   1.402       .  A
C517        N524   1.429       .  S
C518        C519   1.410       .  A
C518        H523   1.083       .  S
C519        C520   1.418       .  A
C520        N521   1.428       .  S
N521        O525   1.262       .  A
N521       O1152   1.262       .  A
N524        O528   1.262       .  A
N524        O527   1.262       .  A
O526       N1147   1.262       .  A
C529        C530   1.408       .  A
C529        C534   1.394       .  A
C529        H536   1.083       .  S
C530        C531   1.417       .  A
C531        C532   1.408       .  A
C531        N538   1.429       .  S
C532        C533   1.405       .  A
C532        H537   1.084       .  S
C533        C534   1.406       .  A
C534        N535   1.430       .  S
N535        O539   1.262       .  A
N535        O540   1.262       .  A
N538        O542   1.262       .  A
N538        O541   1.262       .  A
C543        C544   1.399       .  A
C543        C548   1.400       .  A
C543        H550   1.084       .  S
C544        C545   1.405       .  A
C545        C546   1.401       .  A
C545        N552   1.429       .  S
C546        C547   1.408       .  A
C546        H551   1.084       .  S
C547        C548   1.417       .  A
C548        N549   1.429       .  S
N549        O553   1.262       .  A
N549        O554   1.262       .  A
N552        O556   1.262       .  A
N552        O555   1.262       .  A
C557        C558   1.396       .  A
C557        C562   1.395       .  A
C557        H564   1.084       .  S
C558        C559   1.410       .  A
C559        C560   1.404       .  A
C559        N566   1.429       .  S
C560        C561   1.407       .  A
C560        H565   1.083       .  S
C561        C562   1.421       .  A
C562        N563   1.429       .  S
N563        O567   1.262       .  A
N563        O568   1.262       .  A
N566        O570   1.262       .  A
N566        O569   1.262       .  A
C571        C572   1.404       .  A
C571        C576   1.400       .  A
C571        H578   1.084       .  S
C572        C573   1.414       .  A
C573        C574   1.397       .  A
C573        N580   1.427       .  S
C574        C575   1.400       .  A
C574        H579   1.084       .  S
C575        C576   1.411       .  A
C576        N577   1.429       .  S
N577        O581   1.262       .  A
N577        O582   1.262       .  A
N580        O584   1.262       .  A
N580        O583   1.262       .  A
C585        C586   1.409       .  A
C585        C590   1.402       .  A
C585        H592   1.079       .  S
C586        C587   1.418       .  A
C587        C588   1.402       .  A
C587        N594   1.431       .  S
C588        C589   1.399       .  A
C588        H593   1.084       .  S
C589        C590   1.405       .  A
C590        N591   1.429       .  S
N591        O595   1.262       .  A
N591        O596   1.262       .  A
N594        O598   1.261       .  A
N594        O597   1.262       .  A
C599        C600   1.408       .  A
C599        C604   1.401       .  A
C599        H606   1.079       .  S
C600        C601   1.418       .  A
C601        C602   1.396       .  A
C601        N608   1.429       .  S
C602        C603   1.397       .  A
C602        H607   1.084       .  S
C603        C604   1.405       .  A
C604        N605   1.432       .  S
N605        O609   1.262       .  A
N605        O610   1.262       .  A
N608        O612   1.260       .  A
N608        O611   1.262       .  A
C613        C614   1.405       .  A
C613        C618   1.401       .  A
C613        H620   1.084       .  S
C614        C615   1.414       .  A
C615        C616   1.397       .  A
C615        N622   1.426       .  S
C616        C617   1.399       .  A
C616        H621   1.084       .  S
C617        C618   1.412       .  A
C618        N619   1.430       .  S
N619        O623   1.262       .  A
N619        O624   1.262       .  A
N622        O626   1.262       .  A
N622        O625   1.262       .  A
N627        C631   1.370   1_554  A
C628        C629   1.378       .  A
C628       C1240   1.488       .  S
C629        H632   1.083       .  S
C630        C631   1.387       .  A
C630        H633   1.080       .  S
C631       C1226   1.498       .  S
N634        C638   1.369       .  A
N634        N779   1.427       .  S
C635       C1198   1.489       .  S
C636        C637   1.369       .  A
C637        C638   1.386       .  A
C637        H640   1.082       .  S
C638       C1212   1.498       .  S
N641        C646   1.353       .  A
N641        C645   1.352       .  A
N641        H673   1.040       .  S
N642        C649   1.352       .  A
N642        C650   1.353       .  A
N643        C648   1.353       .  A
N643        C647   1.353       .  A
N643        H674   1.041       .  S
N644        C651   1.352       .  A
N644        C652   1.353       .  A
C645        C653   1.388       .  A
C645        C661   1.414       .  A
C646        C662   1.413       .  A
C646        C654   1.387       .  A
C647        C655   1.386       .  A
C647        C664   1.411       .  A
C648        C663   1.414       .  A
C648        C656   1.387       .  A
C649        C661   1.419       .  A
C649        C657   1.389       .  A
C650        C664   1.412       .  A
C650        C658   1.384       .  A
C651        C659   1.388       .  A
C651        C662   1.418       .  A
C652        C660   1.385       .  A
C652        C663   1.414       .  A
C653        C654   1.376       .  A
C653        H665   1.083       .  S
C654        H666   1.083       .  S
C655        C656   1.372       .  A
C655        H667   1.082       .  S
C656        H668   1.082       .  S
C657        C658   1.374       .  A
C657        H669   1.082       .  S
C658        H670   1.082       .  S
C659        C660   1.375       .  A
C659        H671   1.082       .  S
C660        H672   1.082       .  S
C661       C1243   1.492       .  S
C662       C1229   1.490       .  S
C663       C1184   1.491       .  S
C664       C1170   1.488       .  S
O675       Cr693   1.983       .  S
O675        C683   1.260       .  A
O676       Cr693   1.975       .  S
O676        C677   1.261       .  A
C677       C1173   1.490       .  S
C677        O678   1.270       .  A
O678       Cr694   2.023       .  S
O679       Cr694   1.985       .  S
O679        C680   1.263       .  A
C680       C1128   1.496       .  S
C680        O681   1.266       .  A
O681       Cr695   2.009       .  S
O682       Cr695   1.990       .  S
O682        C683   1.261       .  A
C683       C1156   1.484       .  S
O684        C692   1.262       .  A
O685        C686   1.263       .  A
C686       C1187   1.493       .  S
C686        O687   1.263       .  A
O688        C689   1.267       .  A
C689       C1117   1.482       .  S
C689        O690   1.262       .  A
O691        C692   1.266       .  A
C692       C1145   1.486       .  S
Cr693       O696   1.770       .  S
Cr694       O696   1.777       .  S
Cr695       O696   1.779       .  S
N697        C702   1.351       .  A
N697        C701   1.351       .  A
N697        H729   1.056       .  S
N698        C705   1.353       .  A
N698        C706   1.354       .  A
N699        C704   1.350       .  A
N699        C703   1.351       .  A
N699        H730   1.056       .  S
N700        C707   1.353       .  A
N700        C708   1.354       .  A
C701        C709   1.387       .  A
C701        C717   1.415       .  A
C702        C718   1.416       .  A
C702        C710   1.388       .  A
C703        C711   1.387       .  A
C703        C720   1.414       .  A
C704        C719   1.414       .  A
C704        C712   1.388       .  A
C705        C717   1.419       .  A
C705        C713   1.388       .  A
C706        C720   1.414       .  A
C706        C714   1.384       .  A
C707        C715   1.388       .  A
C707        C718   1.420       .  A
C708        C716   1.385       .  A
C708        C719   1.415       .  A
C709        C710   1.378       .  A
C709        H721   1.081       .  S
C710        H722   1.083       .  S
C711        C712   1.375       .  A
C711        H723   1.082       .  S
C712        H724   1.082       .  S
C713        C714   1.374       .  A
C713        H725   1.082       .  S
C714        H726   1.082       .  S
C715        C716   1.373       .  A
C715        H727   1.082       .  S
C716        H728   1.082       .  S
C717       C1215   1.491       .  S
C718       C1201   1.495       .  S
C719       C1114   1.487       .  S
C720       C1131   1.490       .  S
N731        C736   1.353       .  A
N731        C735   1.351       .  A
N731        H763   1.040       .  S
N732        C739   1.350       .  A
N732        C740   1.351       .  A
N733        C738   1.349       .  A
N733        C737   1.351       .  A
N733        H764   1.041       .  S
N734        C741   1.353       .  A
N734        C742   1.351       .  A
C735        C743   1.388       .  A
C735        C751   1.412       .  A
C736        C752   1.410       .  A
C736        C744   1.387       .  A
C737        C745   1.387       .  A
C737        C754   1.407       .  A
C738        C753   1.407       .  A
C738        C746   1.387       .  A
C739        C751   1.411       .  A
C739        C747   1.386       .  A
C740        C754   1.415       .  A
C740        C748   1.387       .  A
C741        C749   1.384       .  A
C741        C752   1.411       .  A
C742        C750   1.389       .  A
C742        C753   1.418       .  A
C743        C744   1.372       .  A
C743        H755   1.082       .  S
C744        H756   1.082       .  S
C745        C746   1.373       .  A
C745        H757   1.083       .  S
C746        H758   1.083       .  S
C747        C748   1.375       .  A
C747        H759   1.082       .  S
C748        H760   1.082       .  S
C749        C750   1.375       .  A
C749        H761   1.082       .  S
C750        H762   1.082       .  S
C751       C1159   1.480       .  S
C752       C1142   1.486       .  S
C753       C1086   1.484       .  S
C754       C1100   1.486       .  S
N765        C769   1.368       .  A
N765        N772   1.429       .  S
C766       C1089   1.508       .  S
C767        C768   1.361       .  A
C768        C769   1.377       .  A
C768        H771   1.083       .  S
C769       C1103   1.481       .  S
N772        C776   1.369       .  A
C773       C1072   1.490       .  S
C774        C775   1.364       .  A
C775        C776   1.385       .  A
C775        H778   1.081       .  S
C776       C1058   1.494       .  S
N779        C783   1.361       .  A
C780       C1044   1.491       .  S
C781        C782   1.368       .  A
C782        C783   1.378       .  A
C782        H785   1.083       .  S
C783       C1030   1.484       .  S
N786        C791   1.348       .  A
N786        C790   1.351       .  A
N786        H818   1.042       .  S
N787        C794   1.352       .  A
N787        C795   1.349       .  A
N788        C793   1.353       .  A
N788        C792   1.351       .  A
N788        H819   1.040       .  S
N789        C796   1.350       .  A
N789        C797   1.351       .  A
C790        C798   1.387       .  A
C790        C806   1.410       .  A
C791        C807   1.405       .  A
C791        C799   1.387       .  A
C792        C800   1.388       .  A
C792        C809   1.415       .  A
C793        C808   1.414       .  A
C793        C801   1.386       .  A
C794        C806   1.413       .  A
C794        C802   1.385       .  A
C795        C809   1.416       .  A
C795        C803   1.388       .  A
C796        C804   1.384       .  A
C796        C807   1.406       .  A
C797        C805   1.388       .  A
C797        C808   1.416       .  A
C798        C799   1.374       .  A
C798        H810   1.082       .  S
C799        H811   1.082       .  S
C800        C801   1.379       .  A
C800        H812   1.082       .  S
C801        H813   1.082       .  S
C802        C803   1.375       .  A
C802        H814   1.082       .  S
C803        H815   1.082       .  S
C804        C805   1.375       .  A
C804        H816   1.082       .  S
C805        H817   1.082       .  S
C806       C1002   1.491       .  S
C807       C1016   1.473       .  S
C808       C1061   1.495       .  S
C809       C1075   1.486       .  S
N820        C825   1.352       .  A
N820        C824   1.352       .  A
N820        H852   1.039       .  S
N821        C828   1.354       .  A
N821        C829   1.352       .  A
N822        C827   1.352       .  A
N822        C826   1.351       .  A
N822        H853   1.038       .  S
N823        C830   1.352       .  A
N823        C831   1.352       .  A
C824        C832   1.387       .  A
C824        C840   1.412       .  A
C825        C841   1.411       .  A
C825        C833   1.387       .  A
C826        C834   1.387       .  A
C826        C843   1.412       .  A
C827        C842   1.414       .  A
C827        C835   1.387       .  A
C828        C840   1.413       .  A
C828        C836   1.384       .  A
C829        C843   1.420       .  A
C829        C837   1.389       .  A
C830        C838   1.384       .  A
C830        C841   1.409       .  A
C831        C839   1.389       .  A
C831        C842   1.418       .  A
C832        C833   1.372       .  A
C832        H844   1.082       .  S
C833        H845   1.082       .  S
C834        C835   1.378       .  A
C834        H846   1.082       .  S
C835        H847   1.083       .  S
C836        C837   1.376       .  A
C836        H848   1.082       .  S
C837        H849   1.082       .  S
C838        C839   1.373       .  A
C838        H850   1.082       .  S
C839        H851   1.082       .  S
C840        C988   1.489       .  S
C841        C977   1.482       .  S
C842       C1033   1.489       .  S
C843       C1047   1.486       .  S
O854       Cr872   1.966       .  S
O854        C862   1.259       .  A
O855       Cr872   1.986       .  S
O855        C856   1.261       .  A
C856        C963   1.487       .  S
C856        O857   1.264       .  A
O857       Cr873   1.995       .  S
O858       Cr873   2.004       .  S
O858        C859   1.266       .  A
C859        C974   1.481       .  S
C859        O860   1.261       .  A
O860       Cr874   1.979       .  S
O861       Cr874   2.010       .  S
O861        C862   1.266       .  A
C862       C1019   1.476       .  S
O863        C871   1.258       .  A
O864        C865   1.260       .  A
C865        C949   1.482       .  S
C865        O866   1.271       .  A
O867        C868   1.263       .  A
C868        C991   1.494       .  S
C868        O869   1.264       .  A
O870        C871   1.263       .  A
C871       C1005   1.487       .  S
Cr872       O875   1.770       .  S
Cr873       O875   1.774       .  S
Cr874       O875   1.779       .  S
N876        C881   1.350       .  A
N876        C880   1.348       .  A
N876        H908   1.039       .  S
N877        C884   1.352       .  A
N877        C885   1.351       .  A
N878        C883   1.354       .  A
N878        C882   1.355       .  A
N878        H909   1.038       .  S
N879        C886   1.352       .  A
N879        C887   1.350       .  A
C880        C888   1.387       .  A
C880        C896   1.406       .  A
C881        C897   1.407       .  A
C881        C889   1.387       .  A
C882        C890   1.386   1_545  A
C882        C899   1.420       .  A
C883        C898   1.422       .  A
C883        C891   1.388       .  A
C884        C896   1.409       .  A
C884        C892   1.383       .  A
C885        C899   1.419       .  A
C885        C893   1.389       .  A
C886        C894   1.383       .  A
C886        C897   1.408       .  A
C887        C895   1.389       .  A
C887        C898   1.418       .  A
C888        C889   1.373       .  A
C888        H900   1.082       .  S
C889        H901   1.082       .  S
C890        C891   1.381   1_565  A
C890        H902   1.082       .  S
C891        H903   1.082   1_545  S
C892        C893   1.374       .  A
C892        H904   1.082       .  S
C893        H905   1.082       .  S
C894        C895   1.373       .  A
C894        H906   1.082       .  S
C895        H907   1.082       .  S
C896        C960   1.479       .  S
C897        C946   1.481       .  S
C898        C918   1.496       .  S
C899        C935   1.498       .  S
N910        C911   1.367       .  A
C911        C912   1.382       .  A
C911        C932   1.493       .  S
C912        H915   1.081       .  S
C913        C914   1.382       .  A
C913        H916   1.080       .  S
C914        C921   1.487       .  S
C917        C918   1.403   1_565  A
C917        C922   1.399       .  A
C917        H924   1.084       .  S
C918        C919   1.416       .  A
C919        C920   1.402   1_545  A
C919        N926   1.433       .  S
C920        C921   1.405       .  A
C920        H925   1.083       .  S
C921        C922   1.413       .  A
C922        N923   1.430       .  S
N923        O927   1.262       .  A
N923        O928   1.261       .  A
N926        O930   1.262       .  A
N926        O929   1.262       .  A
C931        C932   1.406       .  A
C931        C936   1.402   1_565  A
C931        H938   1.083       .  S
C932        C933   1.415       .  A
C933        C934   1.403       .  A
C933        N940   1.430       .  S
C934        C935   1.403   1_565  A
C934        H939   1.084       .  S
C935        C936   1.413       .  A
C936        N937   1.431       .  S
N937        O941   1.262       .  A
N937        O942   1.262       .  A
N940        O944   1.262       .  A
N940        O943   1.261       .  A
C945        C946   1.398       .  A
C945        C950   1.397       .  A
C945        H952   1.084       .  S
C946        C947   1.407       .  A
C947        C948   1.401       .  A
C947        N954   1.429       .  S
C948        C949   1.407       .  A
C948        H953   1.084       .  S
C949        C950   1.417       .  A
C950        N951   1.430       .  S
N951        O955   1.262       .  A
N951        O956   1.262       .  A
N954        O958   1.262       .  A
N954        O957   1.262       .  A
C959        C960   1.403       .  A
C959        C964   1.404       .  A
C959        H966   1.084       .  S
C960        C961   1.402       .  A
C961        C962   1.394       .  A
C961        N968   1.430       .  S
C962        C963   1.411       .  A
C962        H967   1.084       .  S
C963        C964   1.414       .  A
C964        N965   1.428       .  S
N965        O969   1.262       .  A
N965        O970   1.262       .  A
N968        O972   1.262       .  A
N968        O971   1.262       .  A
C973        C974   1.407       .  A
C973        C978   1.400       .  A
C973        H980   1.084       .  S
C974        C975   1.415       .  A
C975        C976   1.400       .  A
C975        N982   1.428       .  S
C976        C977   1.399       .  A
C976        H981   1.084       .  S
C977        C978   1.406       .  A
C978        N979   1.429       .  S
N979        O983   1.262       .  A
N979        O984   1.262       .  A
N982        O986   1.260       .  A
N982        O985   1.261       .  A
C987        C988   1.398       .  A
C987        C992   1.400       .  A
C987        H994   1.084       .  S
C988        C989   1.409       .  A
C989        C990   1.403       .  A
C989        N996   1.429       .  S
C990        C991   1.409       .  A
C990        H995   1.083       .  S
C991        C992   1.420       .  A
C992        N993   1.429       .  S
N993        O997   1.262       .  A
N996       O1000   1.262       .  A
N996        O999   1.262       .  A
C1001      C1002   1.397       .  A
C1001      C1006   1.393       .  A
C1001      H1008   1.084       .  S
C1002      C1003   1.414       .  A
C1003      C1004   1.405       .  A
C1003      N1010   1.430       .  S
C1004      C1005   1.405       .  A
C1004      H1009   1.084       .  S
C1005      C1006   1.420       .  A
C1006      N1007   1.430       .  S
N1007      O1011   1.262       .  A
N1007      O1012   1.262   1_556  A
N1010      O1014   1.262       .  A
N1010      O1013   1.262       .  A
C1015      C1016   1.398       .  A
C1015      C1020   1.397       .  A
C1015      H1022   1.084       .  S
C1016      C1017   1.403       .  A
C1017      C1018   1.397       .  A
C1017      N1024   1.429       .  S
C1018      C1019   1.407       .  A
C1018      H1023   1.084       .  S
C1019      C1020   1.412       .  A
C1020      N1021   1.427       .  S
N1021      O1025   1.261       .  A
N1021      O1026   1.262       .  A
N1024      O1028   1.262       .  A
N1024      O1027   1.262       .  A
C1029      C1030   1.404       .  A
C1029      C1034   1.399       .  A
C1029      H1036   1.084       .  S
C1030      C1031   1.414       .  A
C1031      C1032   1.401       .  A
C1031      N1038   1.428       .  S
C1032      C1033   1.401       .  A
C1032      H1037   1.084       .  S
C1033      C1034   1.409       .  A
C1034      N1035   1.430       .  S
N1035      O1039   1.261       .  A
N1035      O1040   1.262       .  A
N1038      O1042   1.262       .  A
N1038      O1041   1.262       .  A
C1043      C1044   1.408       .  A
C1043      C1048   1.404       .  A
C1043      H1050   1.081       .  S
C1044      C1045   1.415       .  A
C1045      C1046   1.399       .  A
C1045      N1052   1.430       .  S
C1046      C1047   1.398       .  A
C1046      H1051   1.084       .  S
C1047      C1048   1.406       .  A
C1048      N1049   1.429       .  S
N1049      O1053   1.262       .  A
N1049      O1054   1.262       .  A
N1052      O1056   1.262       .  A
N1052      O1055   1.261       .  A
C1057      C1058   1.405       .  A
C1057      C1062   1.401       .  A
C1057      H1064   1.078       .  S
C1058      C1059   1.415       .  A
C1059      C1060   1.401       .  A
C1059      N1066   1.430       .  S
C1060      C1061   1.403       .  A
C1060      H1065   1.084       .  S
C1061      C1062   1.412       .  A
C1062      N1063   1.431       .  S
N1063      O1067   1.262       .  A
N1063      O1068   1.263       .  A
N1066      O1070   1.261   1_655  A
N1066      O1069   1.262       .  A
C1071      C1072   1.407       .  A
C1071      C1076   1.398       .  A
C1071      H1078   1.082       .  S
C1072      C1073   1.419       .  A
C1073      C1074   1.401       .  A
C1073      N1080   1.431       .  S
C1074      C1075   1.401       .  A
C1074      H1079   1.084       .  S
C1075      C1076   1.406       .  A
C1076      N1077   1.429       .  S
N1077      O1081   1.262       .  A
N1077      O1082   1.262       .  A
N1080      O1084   1.262       .  A
C1085      C1086   1.390       .  A
C1085      C1090   1.398       .  A
C1085      H1092   1.085       .  S
C1086      C1087   1.405   1_455  A
C1087      C1088   1.399       .  A
C1087      N1094   1.430       .  S
C1088      C1089   1.413       .  A
C1088      H1093   1.085       .  S
C1089      C1090   1.430   1_655  A
C1090      N1091   1.430       .  S
N1091      O1095   1.262       .  A
N1091      O1096   1.258       .  A
N1094      O1098   1.262       .  A
N1094      O1097   1.262       .  A
C1099      C1100   1.398       .  A
C1099      C1104   1.395       .  A
C1099      H1106   1.084       .  S
C1100      C1101   1.410   1_455  A
C1101      C1102   1.401       .  A
C1101      N1108   1.429       .  S
C1102      C1103   1.405       .  A
C1102      H1107   1.084       .  S
C1103      C1104   1.408   1_655  A
C1104      N1105   1.422       .  S
N1105      O1109   1.262       .  A
N1105      O1110   1.262       .  A
N1108      O1112   1.262       .  A
N1108      O1111   1.262       .  A
C1113      C1114   1.402       .  A
C1113      C1118   1.402       .  A
C1113      H1120   1.084       .  S
C1114      C1115   1.407       .  A
C1115      C1116   1.401       .  A
C1115      N1122   1.428       .  S
C1116      C1117   1.406       .  A
C1116      H1121   1.084       .  S
C1117      C1118   1.413       .  A
C1118      N1119   1.429       .  S
N1119      O1123   1.262       .  A
N1119      O1124   1.262       .  A
N1122      O1126   1.262       .  A
N1122      O1125   1.262       .  A
C1127      C1128   1.409       .  A
C1127      C1132   1.402       .  A
C1127      H1134   1.083       .  S
C1128      C1129   1.420       .  A
C1129      C1130   1.404       .  A
C1129      N1136   1.429       .  S
C1130      C1131   1.400       .  A
C1130      H1135   1.084       .  S
C1131      C1132   1.407       .  A
C1132      N1133   1.429       .  S
N1133      O1137   1.262       .  A
N1133      O1138   1.262       .  A
N1136      O1140   1.262       .  A
N1136      O1139   1.262       .  A
C1141      C1142   1.400       .  A
C1141      C1146   1.402       .  A
C1141      H1148   1.084       .  S
C1142      C1143   1.407       .  A
C1143      C1144   1.401       .  A
C1143      N1150   1.429       .  S
C1144      C1145   1.407       .  A
C1144      H1149   1.084       .  S
C1145      C1146   1.416       .  A
C1146      N1147   1.429       .  S
N1147      O1151   1.262       .  A
N1150      O1154   1.262       .  A
N1150      O1153   1.262       .  A
C1155      C1156   1.408       .  A
C1155      C1160   1.391       .  A
C1155      H1162   1.084       .  S
C1156      C1157   1.415       .  A
C1157      C1158   1.405       .  A
C1157      N1164   1.429       .  S
C1158      C1159   1.403       .  A
C1158      H1163   1.084       .  S
C1159      C1160   1.403       .  A
C1160      N1161   1.429       .  S
N1161      O1165   1.262       .  A
N1161      O1166   1.262       .  A
N1164      O1168   1.262       .  A
N1164      O1167   1.262       .  A
C1169      C1170   1.399       .  A
C1169      C1174   1.401       .  A
C1169      H1176   1.084       .  S
C1170      C1171   1.407       .  A
C1171      C1172   1.405       .  A
C1171      N1178   1.429       .  S
C1172      C1173   1.408       .  A
C1172      H1177   1.084       .  S
C1173      C1174   1.417       .  A
C1174      N1175   1.429       .  S
N1175      O1179   1.262       .  A
N1175      O1180   1.261       .  A
N1178      O1182   1.262       .  A
N1178      O1181   1.262       .  A
C1183      C1184   1.399       .  A
C1183      C1188   1.400       .  A
C1183      H1190   1.084       .  S
C1184      C1185   1.410       .  A
C1185      C1186   1.403       .  A
C1185      N1192   1.429       .  S
C1186      C1187   1.407       .  A
C1186      H1191   1.083       .  S
C1187      C1188   1.420       .  A
C1188      N1189   1.429       .  S
N1189      O1193   1.262   1_556  A
N1189      O1194   1.262       .  A
N1192      O1196   1.262       .  A
N1192      O1195   1.262       .  A
C1197      C1198   1.405       .  A
C1197      C1202   1.401       .  A
C1197      H1204   1.084       .  S
C1198      C1199   1.415       .  A
C1199      C1200   1.401       .  A
C1199      N1206   1.427       .  S
C1200      C1201   1.401       .  A
C1200      H1205   1.084       .  S
C1201      C1202   1.411       .  A
C1202      N1203   1.429       .  S
N1203      O1207   1.262       .  A
N1203      O1208   1.262       .  A
N1206      O1210   1.262       .  A
N1206      O1209   1.262   1_556  A
C1211      C1212   1.409       .  A
C1211      C1216   1.404       .  A
C1211      H1218   1.079       .  S
C1212      C1213   1.417       .  A
C1213      C1214   1.402       .  A
C1213      N1220   1.431       .  S
C1214      C1215   1.399       .  A
C1214      H1219   1.084       .  S
C1215      C1216   1.407       .  A
C1216      N1217   1.430       .  S
N1217      O1221   1.262       .  A
N1217      O1222   1.262       .  A
N1220      O1224   1.261       .  A
N1220      O1223   1.262       .  A
C1225      C1226   1.407       .  A
C1225      C1230   1.403       .  A
C1225      H1232   1.078       .  S
C1226      C1227   1.419       .  A
C1227      C1228   1.401       .  A
C1227      N1234   1.429       .  S
C1228      C1229   1.399       .  A
C1228      H1233   1.084       .  S
C1229      C1230   1.408       .  A
C1230      N1231   1.433       .  S
N1231      O1235   1.262       .  A
N1231      O1236   1.263       .  A
N1234      O1238   1.260       .  A
N1234      O1237   1.262       .  A
C1239      C1240   1.405       .  A
C1239      C1244   1.399       .  A
C1239      H1246   1.084       .  S
C1240      C1241   1.415       .  A
C1241      C1242   1.400       .  A
C1241      N1248   1.427       .  S
C1242      C1243   1.401       .  A
C1242      H1247   1.084       .  S
C1243      C1244   1.411       .  A
C1244      N1245   1.430       .  S
N1245      O1249   1.262       .  A
N1245      O1250   1.262       .  A
N1248      O1252   1.262       .  A
N1248      O1251   1.261       .  A
