geometry optimzed in LAMMPS
_audit_creation_date              2020-12-01 
_audit_creation_method            'lammps2cif' 
_symmetry_space_group_name_H-M    'P1' 
_symmetry_Int_Tables_number       1 
_symmetry_cell_setting            triclinic 
loop_ 
_symmetry_equiv_pos_as_xyz 
  x,y,z 
_cell_length_a                    29.62688187 
_cell_length_b                    40.654297573053505 
_cell_length_c                    46.246136593678756 
_cell_angle_alpha                 89.79096358720732 
_cell_angle_beta                  105.31157372434828 
_cell_angle_gamma                 89.85878260710837 
loop_ 
_atom_site_label 
_atom_site_type_symbol 
_atom_site_fract_x 
_atom_site_fract_y 
_atom_site_fract_z 
_atom_site_charge 
O1          O  0.42519643  0.01378681  0.78281420    -0.56800
C2          C  0.43237846  0.93964300  0.72112111     0.75800
O3          O  0.38215419  0.91276781  0.80506162    -0.58000
C4          C  0.39825432  0.01979418  0.79941784     0.75800
C5          C  0.29846179  0.96661914  0.73454562     0.78200
Cd6        Cd  0.39235138  0.95714863  0.76968671     1.37500
O7          O  0.45535158  0.95646393  0.74312384    -0.56800
O8          O  0.32936743  0.98873857  0.73852969    -0.55600
C9          C  0.42560978  0.90819005  0.81615620     0.78100
O10         O  0.31023336  0.93922535  0.74773786    -0.58000
O11         O  0.39141216  0.93151142  0.72144345    -0.56500
O12         O  0.37263911  0.99645967  0.80367750    -0.56500
O13         O  0.45275409  0.92566838  0.80561050    -0.55600
O14         O  0.53249896  0.82341428  0.55344098    -0.56800
C15         C  0.55263727  0.76019447  0.48775345     0.75800
O16         O  0.67910877  0.80342345  0.55472161    -0.58000
C17         C  0.55531068  0.83290961  0.57924401     0.75800
C18         C  0.60160284  0.72771308  0.58266892     0.78200
Cd19       Cd  0.59586699  0.78668584  0.54636504     1.37500
O20         O  0.52873895  0.77602011  0.50209806    -0.56800
O21         O  0.56509466  0.74509996  0.57418025    -0.55600
C22         C  0.66975940  0.82854873  0.53781818     0.78100
O23         O  0.63730079  0.73764198  0.57496318    -0.58000
O24         O  0.59602814  0.75767457  0.49998247    -0.56500
O25         O  0.59623638  0.82147137  0.58921161    -0.56500
O26         O  0.62711347  0.83353390  0.52464115    -0.55600
O27         O  0.55404357  0.02219137  0.18918144    -0.56800
C28         C  0.53757826  0.10085093  0.24707993     0.75800
O29         O  0.67179831  0.09248828  0.22389713    -0.58000
C30         C  0.58894248  0.01207910  0.18066958     0.75800
C31         C  0.55365336  0.12395573  0.15466417     0.78200
Cd32       Cd  0.58660269  0.07827048  0.20422961     1.37500
O33         O  0.52318861  0.07522665  0.23182601    -0.56800
O34         O  0.52822518  0.10204127  0.16166145    -0.55600
C35         C  0.67377831  0.07953646  0.24925282     0.78100
O36         O  0.59596204  0.12462935  0.16999252    -0.58000
O37         O  0.57133748  0.11584361  0.24112003    -0.56500
O38         O  0.62211037  0.03222742  0.18299617    -0.56500
O39         O  0.63730206  0.06552229  0.25231527    -0.55600
O40         O  0.44042960  0.21669298  0.41565093    -0.56800
C41         C  0.41959952  0.27643859  0.48652639     0.75800
O42         O  0.33746500  0.29919106  0.39811609    -0.58000
C43         C  0.41497652  0.20486591  0.39144343     0.75800
C44         C  0.30069320  0.21057270  0.43312684     0.78200
Cd45       Cd  0.37747382  0.25049717  0.42692789     1.37500
O46         O  0.44239799  0.25657090  0.47463946    -0.56800
O47         O  0.34258362  0.20042621  0.44022281    -0.55600
C48         C  0.37401559  0.30942397  0.39169677     0.78100
O49         O  0.29365717  0.23993002  0.42363048    -0.58000
O50         O  0.37800937  0.28236344  0.47183858    -0.56500
O51         O  0.37246984  0.21372536  0.38394860    -0.56500
O52         O  0.41027964  0.29181760  0.40027245    -0.55600
N53         N  0.99336345  0.04957120  0.45532006    -0.35600
N54         N  0.05276565  0.03859767  0.51532796    -0.56200
N55         N  0.98431781  0.99295916  0.52763809    -0.35600
N56         N  0.92280705  0.00706278  0.46905280    -0.56200
C57         C  0.02555163  0.07347339  0.45680037     0.28000
C58         C  0.95571285  0.05751913  0.43257789     0.28000
C59         C  0.01186603  0.99833252  0.55558076     0.28000
C60         C  0.94319654  0.98090892  0.53057983     0.28000
C61         C  0.08358523  0.05405167  0.50297174     0.36600
C62         C  0.07805567  0.02535782  0.54146913     0.36600
C63         C  0.90488874  0.01137303  0.43924295     0.36600
C64         C  0.90087560  0.98063732  0.47676836     0.36600
C65         C  0.00844796  0.09637446  0.43415924    -0.20900
C66         C  0.96416969  0.08657444  0.41923214    -0.20900
C67         C  0.98806028  0.98966207  0.57654410    -0.20900
C68         C  0.94458576  0.97883093  0.56075672    -0.20900
C69         C  0.12855074  0.05084685  0.52150925    -0.22000
C70         C  0.12511169  0.03237891  0.54569351    -0.22000
C71         C  0.87179617  0.98748402  0.42788045    -0.22000
C72         C  0.86965296  0.96773025  0.45159988    -0.22000
C73         C  0.07094192  0.07358831  0.47670603    -0.17300
C74         C  0.91500829  0.03830599  0.42273690    -0.17300
C75         C  0.90571403  0.97024060  0.50663321    -0.17300
C76         C  0.05873320  0.00917455  0.56251317    -0.17300
H77         H  0.02568032  0.11784587  0.42841838     0.15600
H78         H  0.94124143  0.09925998  0.40036967     0.15600
H79         H  0.00067310  0.99103504  0.60070837     0.15600
H80         H  0.91719531  0.97044592  0.57048854     0.15600
H81         H  0.16055366  0.06109285  0.51833441     0.13900
H82         H  0.15405514  0.02529472  0.56437223     0.13900
H83         H  0.85123594  0.98471165  0.40490983     0.13900
H84         H  0.84714430  0.94659129  0.45042214     0.13900
H85         H  0.99871984  0.02752367  0.46699317     0.27100
H86         H  0.99487256  0.99390949  0.50796648     0.27100
O87         O  0.51952504  0.45541068  0.72956110    -0.56800
C88         C  0.58498422  0.52244581  0.67643202     0.75800
O89         O  0.66632097  0.44483281  0.72550230    -0.58000
C90         C  0.53576489  0.42938723  0.74403903     0.75800
C91         C  0.54955417  0.41251627  0.65247970     0.78200
Cd92       Cd  0.58178000  0.45721182  0.70196378     1.37500
O93         O  0.54978119  0.51375007  0.68541153    -0.56800
O94         O  0.52227891  0.43143550  0.66156036    -0.55600
C95         C  0.66565301  0.46010659  0.74936213     0.78100
O96         O  0.59281525  0.41464311  0.66570219    -0.58000
O97         O  0.61714395  0.50128484  0.67900272    -0.56500
O98         O  0.57087289  0.41624532  0.73796473    -0.56500
O99         O  0.62788676  0.47431654  0.74994677    -0.55600
O100        O  0.43696351  0.27778905  0.97503828    -0.56800
C101        C  0.41641476  0.32506666  0.89100125     0.75800
O102        O  0.40770027  0.24198572  0.89765786    -0.58000
C103        C  0.41649445  0.25502407  0.98539066     0.75800
C104        C  0.29642132  0.32019793  0.93479950     0.78200
Cd105      Cd  0.37447292  0.28164814  0.92603978     1.37500
O106        O  0.37279340  0.31961827  0.88416758    -0.56800
O107        O  0.33745449  0.33155728  0.93964019    -0.55600
C108        C  0.37154419  0.22473309  0.88815403     0.78100
O109        O  0.29056092  0.29088592  0.92533353    -0.58000
O110        O  0.44076258  0.31178866  0.91496775    -0.56500
O111        O  0.37752274  0.24586257  0.96892603    -0.56500
O112        O  0.33518365  0.23390636  0.89550099    -0.55600
O113        O  0.45474442  0.57483182  0.24410502    -0.56800
C114        C  0.39889532  0.51754094  0.30686611     0.75800
O115        O  0.38468208  0.62191219  0.30883093    -0.58000
C116        C  0.43448275  0.59660861  0.22530623     0.75800
C117        C  0.30265764  0.56546128  0.23480516     0.78200
Cd118      Cd  0.39422817  0.57759831  0.27348037     1.37500
O119        O  0.42718021  0.52249042  0.29088049    -0.56800
O120        O  0.33408665  0.54353242  0.24159096    -0.55600
C121        C  0.42823779  0.62566790  0.32025898     0.78100
O122        O  0.31251542  0.59344744  0.24696163    -0.58000
O123        O  0.37133086  0.54082247  0.30856487    -0.56500
O124        O  0.39723026  0.60877897  0.22912365    -0.56500
O125        O  0.45522827  0.60783006  0.30986154    -0.55600
O126        O  0.52911407  0.72072776  0.05835399    -0.56800
C127        C  0.55117167  0.77627752  0.98666860     0.75800
O128        O  0.63751670  0.79875180  0.07576134    -0.58000
C129        C  0.55386147  0.70556541  0.08104204     0.75800
C130        C  0.67249993  0.71250942  0.03738939     0.78200
Cd131      Cd  0.59518853  0.75099385  0.04649927     1.37500
O132        O  0.52888572  0.75764478  0.00000097    -0.56800
O133        O  0.63003130  0.70542476  0.02557312    -0.55600
C134        C  0.60142591  0.81028664  0.08194656     0.78100
O135        O  0.68018316  0.73785402  0.05385036    -0.58000
O136        O  0.59330403  0.78193703  0.00027596    -0.56500
O137        O  0.59755149  0.71021407  0.08703901    -0.56500
O138        O  0.56411719  0.79421513  0.07250906    -0.55600
N139        N  0.98520844  0.54496543  0.02746437    -0.35600
N140        N  0.04923111  0.49514063  0.01626531    -0.56200
N141        N  0.98691590  0.48334037  0.95712756    -0.35600
N142        N  0.92093572  0.53042598  0.96978065    -0.56200
C143        C  0.01231733  0.53930883  0.05551396     0.28000
C144        C  0.94535127  0.55942977  0.03010862     0.28000
C145        C  0.01786254  0.45835541  0.95913570     0.28000
C146        C  0.94809501  0.47579625  0.93515407     0.28000
C147        C  0.07599974  0.50876176  0.04171400     0.36600
C148        C  0.07861128  0.47822188  0.00370941     0.36600
C149        C  0.90274400  0.55903916  0.97646691     0.36600
C150        C  0.90209106  0.52542233  0.94017725     0.36600
C151        C  0.98927681  0.55006473  0.07625264    -0.20900
C152        C  0.94689446  0.56277027  0.06017934    -0.20900
C153        C  0.99869296  0.43479834  0.93780761    -0.20900
C154        C  0.95442382  0.44551669  0.92306661    -0.20900
C155        C  0.12254187  0.50049122  0.04535262    -0.22000
C156        C  0.12417605  0.48096315  0.02149859    -0.22000
C157        C  0.87287727  0.57254995  0.95092122    -0.22000
C158        C  0.87227796  0.55114899  0.92794491    -0.22000
C159        C  0.05843934  0.52673136  0.06259336    -0.17300
C160        C  0.90904036  0.57103905  0.00587404    -0.17300
C161        C  0.90868287  0.49664073  0.92470394    -0.17300
C162        C  0.06417144  0.45800235  0.97796621    -0.17300
H163        H  0.00177026  0.54901596  0.10044390     0.15600
H164        H  0.92036002  0.57329219  0.06959226     0.15600
H165        H  0.01474528  0.41230626  0.93298195     0.15600
H166        H  0.93018922  0.43260387  0.90513050     0.15600
H167        H  0.15229196  0.50747939  0.06343602     0.13900
H168        H  0.15546440  0.46963847  0.01818800     0.13900
H169        H  0.85299878  0.59518277  0.94910804     0.13900
H170        H  0.85207078  0.55411826  0.90489092     0.13900
H171        H  0.99549232  0.54261364  0.00771736     0.27100
H172        H  0.99418692  0.50595514  0.96777848     0.27100
C173        C  0.77862529  0.67232831  0.03309262     0.21300
C174        C  0.82709692  0.66653921  0.03862062    -0.38600
C175        C  0.83984150  0.63737872  0.02636199     0.20300
C176        C  0.80674612  0.61591527  0.00990696     0.22900
C177        C  0.75868696  0.62178638  0.00425792    -0.39100
C178        C  0.74603352  0.65068158  0.01645116     0.21700
N179        N  0.75693131  0.69761357  0.04274301    -0.32300
C180        C  0.71035500  0.69174229  0.03203369    -0.09900
C181        C  0.70240775  0.66280829  0.01549965    -0.28700
N182        N  0.82719070  0.58982814  0.00098607    -0.45300
C183        C  0.87385024  0.59448757  0.01159030    -0.04600
C184        C  0.88326645  0.62391186  0.02764825    -0.22000
H185        H  0.85286576  0.68325241  0.05168451     0.19900
H186        H  0.73293000  0.60487309  0.99148212     0.18700
H187        H  0.66903779  0.65183402  0.00458272     0.14900
H188        H  0.91719666  0.63405870  0.03857657     0.14800
H189        H  0.77270960  0.71737721  0.05593823     0.33000
H190        H  0.81035303  0.56986564  0.98857319     0.35700
C191        C  0.14242153  0.52433631  0.13454090     0.21300
C192        C  0.17814275  0.51039473  0.15747926    -0.38600
C193        C  0.20422245  0.53250793  0.17853272     0.20300
C194        C  0.19521684  0.56599639  0.17708467     0.22900
C195        C  0.15928429  0.57994886  0.15415367    -0.39100
C196        C  0.13336198  0.55781342  0.13292066     0.21700
N197        N  0.11567049  0.50890303  0.11044651    -0.32300
C198        C  0.08961471  0.53267785  0.09310180    -0.09900
C199        C  0.09928760  0.56350347  0.10656417    -0.28700
N200        N  0.22762852  0.58198687  0.19823801    -0.45300
C201        C  0.25772642  0.55851820  0.21294054    -0.04600
C202        C  0.24403337  0.52735943  0.20142772    -0.22000
H203        H  0.18640648  0.48440768  0.15811077     0.19900
H204        H  0.15327241  0.60623393  0.15225422     0.18700
H205        H  0.08514550  0.58705309  0.09745645     0.14900
H206        H  0.26238936  0.50429445  0.20774938     0.14800
H207        H  0.11629956  0.48386794  0.10555213     0.33000
H208        H  0.23075753  0.60741142  0.20124203     0.35700
C209        C  0.45596603  0.63619533  0.16108616     0.21300
C210        C  0.44608662  0.65777873  0.13639444    -0.38600
C211        C  0.48352238  0.66457695  0.12401941     0.20300
C212        C  0.52761212  0.65116990  0.13560711     0.22900
C213        C  0.53737212  0.62929818  0.16017343    -0.39100
C214        C  0.49975820  0.62223022  0.17240674     0.21700
N215        N  0.42719348  0.62769921  0.17792582    -0.32300
C216        C  0.45256782  0.60815876  0.20020935    -0.09900
C217        C  0.49797750  0.60380861  0.19735126    -0.28700
N218        N  0.55794361  0.66332567  0.12118697    -0.45300
C219        C  0.53296577  0.68442430  0.10011536    -0.04600
C220        C  0.48628893  0.68567861  0.10107336    -0.22000
H221        H  0.41203519  0.66913201  0.12793843     0.19900
H222        H  0.57202271  0.61923498  0.16957591     0.18700
H223        H  0.52644535  0.59051714  0.21236493     0.14900
H224        H  0.45868441  0.70114372  0.08776873     0.14800
H225        H  0.39271878  0.63566291  0.17502672     0.33000
H226        H  0.59373130  0.65823945  0.12589765     0.35700
C227        C  0.13616317  0.39264989  0.96195461     0.21300
C228        C  0.15036165  0.36008689  0.95870336    -0.38600
C229        C  0.19287618  0.35653983  0.95080288     0.20300
C230        C  0.21937740  0.38341711  0.94701241     0.22900
C231        C  0.20492343  0.41583527  0.94989138    -0.39100
C232        C  0.16227127  0.41936323  0.95729540     0.21700
N233        N  0.09779632  0.40277876  0.96988473    -0.32300
C234        C  0.09940787  0.43616697  0.96995382    -0.09900
C235        C  0.13897402  0.44733309  0.96201174    -0.28700
N236        N  0.25911223  0.37373720  0.94074812    -0.45300
C237        C  0.25791941  0.34043803  0.94003970    -0.04600
C238        C  0.21698834  0.32870664  0.94607397    -0.22000
H239        H  0.12998307  0.33910841  0.96221024     0.19900
H240        H  0.22559587  0.43681976  0.94679244     0.18700
H241        H  0.14956940  0.47258558  0.96039436     0.14900
H242        H  0.20688093  0.30332097  0.94755750     0.14800
H243        H  0.07250062  0.38794366  0.97536601     0.33000
H244        H  0.28555640  0.38889854  0.93717208     0.35700
C245        C  0.74246943  0.46956288  0.82214051     0.21300
C246        C  0.75369928  0.47766127  0.85256874    -0.38600
C247        C  0.80143877  0.47937107  0.86692889     0.20300
C248        C  0.83565717  0.47354085  0.85218322     0.22900
C249        C  0.82433616  0.46503884  0.82159234    -0.39100
C250        C  0.77622514  0.46320442  0.80711012     0.21700
N251        N  0.69957021  0.46841504  0.80339909    -0.32300
C252        C  0.70547917  0.46120407  0.77609934    -0.09900
C253        C  0.75286507  0.45734967  0.77740340    -0.28700
N254        N  0.87847585  0.47846808  0.87078327    -0.45300
C255        C  0.87120500  0.48742237  0.89748903    -0.04600
C256        C  0.82352794  0.48802556  0.89586072    -0.22000
H257        H  0.72710898  0.48305468  0.86405663     0.19900
H258        H  0.85092014  0.46089887  0.80982500     0.18700
H259        H  0.76811662  0.45243170  0.75901366     0.14900
H260        H  0.80721455  0.49463915  0.91340178     0.14800
H261        H  0.66801120  0.47296518  0.80876603     0.33000
H262        H  0.91050037  0.47678952  0.86541531     0.35700
C263        C  0.44290121  0.37626748  0.83458592     0.21300
C264        C  0.43307810  0.39735395  0.80950944    -0.38600
C265        C  0.46981772  0.40225312  0.79601715     0.20300
C266        C  0.51283456  0.38693898  0.80655405     0.22900
C267        C  0.52293910  0.36628902  0.83191667    -0.39100
C268        C  0.48636843  0.36170254  0.84560495     0.21700
N269        N  0.41300812  0.36598219  0.85009671    -0.32300
C270        C  0.43764142  0.34496377  0.87133571    -0.09900
C271        C  0.48371612  0.34189554  0.86943879    -0.28700
N272        N  0.54116337  0.39444806  0.78911779    -0.45300
C273        C  0.51638484  0.41507006  0.76753653    -0.04600
C274        C  0.47170500  0.42065778  0.77113877    -0.22000
H275        H  0.39903479  0.40862520  0.80080511     0.19900
H276        H  0.55651597  0.35418539  0.84004242     0.18700
H277        H  0.51073599  0.32586090  0.88255048     0.14900
H278        H  0.44419075  0.43571423  0.75722150     0.14800
H279        H  0.37759536  0.37209488  0.84591529     0.33000
H280        H  0.57549633  0.38624704  0.79186382     0.35700
C281        C  0.19877057  0.17265513  0.44519754     0.21300
C282        C  0.15650332  0.17121703  0.45339692    -0.38600
C283        C  0.14219488  0.13967852  0.45944591     0.20300
C284        C  0.16741483  0.11163537  0.45684432     0.22900
C285        C  0.20990491  0.11306586  0.44896800    -0.39100
C286        C  0.22473737  0.14466508  0.44356349     0.21700
N287        N  0.22139210  0.19979773  0.44010745    -0.32300
C288        C  0.26253774  0.18896218  0.43603299    -0.09900
C289        C  0.26573175  0.15476747  0.43776985    -0.28700
N290        N  0.14571844  0.08462171  0.46309142    -0.45300
C291        C  0.10659306  0.09560461  0.46992391    -0.04600
C292        C  0.10358007  0.12983172  0.46836375    -0.22000
H293        H  0.13665514  0.19307265  0.45543593     0.19900
H294        H  0.23033605  0.09126542  0.44770391     0.18700
H295        H  0.29490174  0.13948183  0.43610918     0.15700
H296        H  0.07625370  0.14531438  0.47258330     0.14800
H297        H  0.21068917  0.22419475  0.44095913     0.33000
H298        H  0.15640954  0.06020537  0.46232636     0.35700
C299        C  0.40946410  0.43556649  0.33596703     0.21300
C300        C  0.42859072  0.40393705  0.34210097    -0.38600
C301        C  0.40278896  0.38191718  0.35476523     0.20300
C302        C  0.36084077  0.39052500  0.36064124     0.22900
C303        C  0.34183683  0.42227783  0.35470710    -0.39100
C304        C  0.36793093  0.44443100  0.34229190     0.21700
N305        N  0.42677070  0.46075599  0.32335363    -0.32300
C306        C  0.39614285  0.48589946  0.32178591    -0.09900
C307        C  0.35916873  0.47673587  0.33354422    -0.28700
N308        N  0.34379021  0.36523439  0.37333057    -0.45300
C309        C  0.37552767  0.34059324  0.37583634    -0.04600
C310        C  0.41266472  0.35006259  0.36445557    -0.22000
H311        H  0.46130076  0.39701873  0.33750124     0.19900
H312        H  0.30930161  0.42926544  0.35951747     0.18700
H313        H  0.32905876  0.49139123  0.33452731     0.14900
H314        H  0.44350708  0.33585780  0.36420196     0.14800
H315        H  0.45697812  0.46065323  0.31574714     0.33000
H316        H  0.31356529  0.36517940  0.38092545     0.35700
C317        C  0.48998378  0.31546985  0.55258024     0.21300
C318        C  0.53123901  0.32683856  0.57281323    -0.38600
C319        C  0.52515243  0.35073383  0.59344323     0.20300
C320        C  0.48131575  0.36227579  0.59382354     0.22900
C321        C  0.44025371  0.35090579  0.57375625    -0.39100
C322        C  0.44634201  0.32719652  0.55317969     0.21700
N323        N  0.48619361  0.29440255  0.52958448    -0.32300
C324        C  0.43981890  0.29302944  0.51541292    -0.09900
C325        C  0.41400750  0.31302180  0.52964156    -0.28700
N326        N  0.48472591  0.38557927  0.61477876    -0.45300
C327        C  0.53106268  0.38909082  0.62796881    -0.04600
C328        C  0.55750241  0.36768392  0.61535758    -0.22000
H329        H  0.56554930  0.31826126  0.57212764     0.19900
H330        H  0.40607060  0.36041173  0.57370461     0.18700
H331        H  0.37671927  0.31777172  0.52278901     0.14900
H332        H  0.59520213  0.36513512  0.62121030     0.14800
H333        H  0.51353995  0.28294600  0.52309585     0.33000
H334        H  0.45714174  0.39849273  0.61968735     0.35700
C335        C  0.57587802  0.88195433  0.11938028     0.21300
C336        C  0.54729053  0.90440222  0.12942146    -0.38600
C337        C  0.57017067  0.93172174  0.14509867     0.20300
C338        C  0.61786903  0.93642566  0.15013879     0.22900
C339        C  0.64652550  0.91387389  0.14016387    -0.39100
C340        C  0.62364470  0.88643799  0.12458624     0.21700
N341        N  0.56237963  0.85430741  0.10373534    -0.32300
C342        C  0.60171072  0.84093262  0.09890770    -0.09900
C343        C  0.64075490  0.86029102  0.11153755    -0.28700
N344        N  0.63070155  0.96516592  0.16419435    -0.45300
C345        C  0.59096357  0.97887484  0.16818191    -0.04600
C346        C  0.55251666  0.95855518  0.15682119    -0.22000
H347        H  0.50987055  0.90101151  0.12505464     0.19900
H348        H  0.68377570  0.91764089  0.14391636     0.18700
H349        H  0.67661784  0.85592442  0.11109842     0.14900
H350        H  0.51629808  0.96342201  0.15608514     0.14800
H351        H  0.52833074  0.84516884  0.09659040     0.33000
H352        H  0.66428632  0.97522587  0.17010055     0.35700
C353        C  0.48273375  0.17036771  0.09360126     0.21300
C354        C  0.44197456  0.17762326  0.07111234    -0.38600
C355        C  0.44543809  0.20341747  0.05172253     0.20300
C356        C  0.48631354  0.22097777  0.05448270     0.22900
C357        C  0.52731167  0.21376290  0.07721664    -0.39100
C358        C  0.52393377  0.18762969  0.09664708     0.21700
N359        N  0.48854669  0.14597978  0.11384757    -0.32300
C360        C  0.53381310  0.14730138  0.13004604    -0.09900
C361        C  0.55717721  0.17312114  0.12012021    -0.28700
N362        N  0.48094077  0.24295398  0.03188015    -0.45300
C363        C  0.43648471  0.23894307  0.01462947    -0.04600
C364        C  0.41330541  0.21470238  0.02648226    -0.22000
H365        H  0.41016157  0.16355605  0.06839610     0.19900
H366        H  0.55968916  0.22690005  0.07913197     0.18700
H367        H  0.59352203  0.18001612  0.12861161     0.14900
H368        H  0.37827296  0.20546998  0.01706959     0.14800
H369        H  0.46324168  0.12909824  0.11625175     0.33000
H370        H  0.50644727  0.25858620  0.02770353     0.35700
C371        C  0.84485352  0.06179396  0.34968900     0.21300
C372        C  0.83339664  0.06726170  0.31848031    -0.38600
C373        C  0.78608763  0.07470164  0.30484777     0.20300
C374        C  0.75331530  0.07647061  0.32132213     0.22900
C375        C  0.76479093  0.07136108  0.35228999    -0.39100
C376        C  0.81157915  0.06387077  0.36573591     0.21700
N377        N  0.88643050  0.05254305  0.36783833    -0.32300
C378        C  0.87897868  0.04859746  0.39538458    -0.09900
C379        C  0.83285079  0.05562813  0.39492565    -0.28700
N380        N  0.71024838  0.08038821  0.30334273    -0.45300
C381        C  0.71492234  0.08101791  0.27506299    -0.04600
C382        C  0.76188777  0.07814319  0.27489503    -0.22000
H383        H  0.85895142  0.06473782  0.30567428     0.19900
H384        H  0.73869484  0.07188528  0.36483898     0.18700
H385        H  0.81694816  0.05435089  0.41345392     0.14900
H386        H  0.77584176  0.07609453  0.25557914     0.14800
H387        H  0.91758049  0.04848808  0.36183308     0.33000
H388        H  0.67904469  0.08082634  0.30984635     0.35700
C389        C  0.48235549  0.16365000  0.34895405     0.21300
C390        C  0.52130031  0.15923616  0.33759670    -0.38600
C391        C  0.51432166  0.13937888  0.31213874     0.20300
C392        C  0.47204491  0.12431216  0.29906085     0.22900
C393        C  0.43266554  0.12901851  0.31029420    -0.39100
C394        C  0.43942914  0.14956576  0.33558589     0.21700
N395        N  0.47946173  0.18346911  0.37158050    -0.32300
C396        C  0.43413547  0.18282208  0.37234402    -0.09900
C397        C  0.40801516  0.16179001  0.35034729    -0.28700
N398        N  0.47458373  0.10752506  0.27435673    -0.45300
C399        C  0.51855688  0.11272655  0.27161655    -0.04600
C400        C  0.54414633  0.13234562  0.29478449    -0.22000
H401        H  0.55430984  0.17132981  0.34729737     0.19900
H402        H  0.39894493  0.11842840  0.29956979     0.18700
H403        H  0.37075404  0.15723366  0.34504248     0.14900
H404        H  0.57976583  0.14082591  0.29816458     0.14800
H405        H  0.50607926  0.19814376  0.38451514     0.33000
H406        H  0.44777112  0.09445062  0.25975560     0.35700
C407        C  0.80161520  0.92788198  0.51155712     0.21300
C408        C  0.75355402  0.92110425  0.50444797    -0.38600
C409        C  0.74088218  0.89302905  0.51812250     0.20300
C410        C  0.77350680  0.87336650  0.53762739     0.22900
C411        C  0.82162733  0.88016934  0.54471757    -0.39100
C412        C  0.83435537  0.90805554  0.53074854     0.21700
N413        N  0.82260645  0.95269182  0.50100768    -0.32300
C414        C  0.86921716  0.94847752  0.51319442    -0.09900
C415        C  0.87784057  0.92085562  0.53194601    -0.28700
N416        N  0.75247765  0.84785789  0.54728776    -0.45300
C417        C  0.70619932  0.85124893  0.53366328    -0.04600
C418        C  0.69761989  0.87917164  0.51537975    -0.22000
H419        H  0.72797288  0.93632090  0.48908950     0.19900
H420        H  0.84729965  0.86464947  0.55966804     0.18700
H421        H  0.91145459  0.91119391  0.54440373     0.14900
H422        H  0.66422598  0.88800370  0.50176719     0.14800
H423        H  0.80613102  0.97137936  0.48641476     0.33000
H424        H  0.76859849  0.82919448  0.56203271     0.35700
C425        C  0.62027737  0.64982666  0.62074338     0.21300
C426        C  0.64277049  0.61981998  0.63079158    -0.38600
C427        C  0.61720284  0.59748315  0.64351766     0.20300
C428        C  0.57270000  0.60447628  0.64613938     0.22900
C429        C  0.55023681  0.63444503  0.63608376    -0.39100
C430        C  0.57570600  0.65670479  0.62329571     0.21700
N431        N  0.63619180  0.67464897  0.60674357    -0.32300
C432        C  0.60126493  0.69733752  0.60018437    -0.09900
C433        C  0.56315844  0.68703363  0.61028276    -0.28700
N434        N  0.55546636  0.57889423  0.65842754    -0.45300
C435        C  0.58917616  0.55533441  0.66357728    -0.04600
C436        C  0.62820376  0.56610065  0.65462009    -0.22000
H437        H  0.67732632  0.61406882  0.62846588     0.19900
H438        H  0.51517817  0.63984672  0.63766239     0.18700
H439        H  0.53010899  0.69966879  0.60766065     0.14900
H440        H  0.66016868  0.55259421  0.65578600     0.14800
H441        H  0.66813345  0.67565173  0.60120043     0.33000
H442        H  0.52262532  0.57739916  0.66269487     0.35700
C443        C  0.52580547  0.71420562  0.41982874     0.21300
C444        C  0.53571569  0.69327366  0.39824362    -0.38600
C445        C  0.49687891  0.67862883  0.37849977     0.20300
C446        C  0.45150042  0.68442778  0.38001063     0.22900
C447        C  0.44155461  0.70548816  0.40162229    -0.39100
C448        C  0.48050877  0.72015883  0.42145864     0.21700
N449        N  0.55687066  0.72905614  0.44241160    -0.32300
C450        C  0.53138907  0.74448151  0.45873810    -0.09900
C451        C  0.48352035  0.73984092  0.44620327    -0.28700
N452        N  0.42095595  0.66662731  0.35923523    -0.45300
C453        C  0.44718885  0.64936574  0.34449708    -0.04600
C454        C  0.49467254  0.65622440  0.35591601    -0.22000
H455        H  0.57119272  0.68811022  0.39737443     0.19900
H456        H  0.40622700  0.70953066  0.40332191     0.18700
H457        H  0.45502335  0.74810646  0.45498674     0.14900
H458        H  0.52373212  0.64584662  0.34889038     0.14800
H459        H  0.59330988  0.72757532  0.44719043     0.33000
H460        H  0.38465805  0.66583820  0.35563720     0.35700
C461        C  0.40592028  0.10310970  0.82537503     0.21300
C462        C  0.42480732  0.13469637  0.83226168    -0.38600
C463        C  0.39913712  0.15593446  0.84594551     0.20300
C464        C  0.35747800  0.14664230  0.85182740     0.22900
C465        C  0.33874075  0.11513467  0.84502020    -0.39100
C466        C  0.36474247  0.09379424  0.83187193     0.21700
N467        N  0.42397065  0.07793193  0.81307772    -0.32300
C468        C  0.39420912  0.05242008  0.81223721    -0.09900
C469        C  0.35699177  0.06144673  0.82372684    -0.28700
N470        N  0.34100979  0.17061112  0.86627617    -0.45300
C471        C  0.37279343  0.19517448  0.87009984    -0.04600
C472        C  0.40938748  0.18702399  0.85757743    -0.22000
H473        H  0.45761082  0.14192386  0.82800747     0.19900
H474        H  0.30683956  0.10749319  0.85028727     0.18700
H475        H  0.32781150  0.04636559  0.82557153     0.14900
H476        H  0.44030529  0.20137229  0.85806463     0.14800
H477        H  0.45457503  0.07802327  0.80590223     0.33000
H478        H  0.31130401  0.16964312  0.87438824     0.35700
C479        C  0.44883063  0.84962973  0.87650372     0.21300
C480        C  0.43910324  0.82906296  0.89865942    -0.38600
C481        C  0.47829164  0.81508346  0.91917944     0.20300
C482        C  0.52354838  0.82136256  0.91772201     0.22900
C483        C  0.53321475  0.84176349  0.89560538    -0.39100
C484        C  0.49420501  0.85558798  0.87514524     0.21700
N485        N  0.41813625  0.86701359  0.85518273    -0.32300
C486        C  0.44436228  0.88417807  0.84033644    -0.09900
C487        C  0.49188081  0.87756158  0.85210021    -0.28700
N488        N  0.55480282  0.80715654  0.94082141    -0.45300
C489        C  0.52957392  0.79160374  0.95726812    -0.04600
C490        C  0.48159544  0.79571240  0.94434573    -0.22000
H491        H  0.40376353  0.82486448  0.90022315     0.19900
H492        H  0.56864599  0.84715069  0.89484477     0.18700
H493        H  0.52092607  0.88811684  0.84520994     0.14900
H494        H  0.45315797  0.78725825  0.95307991     0.14800
H495        H  0.38180972  0.86781941  0.85146483     0.33000
H496        H  0.59120925  0.80893750  0.94571551     0.35700
C497        C  0.20024901  0.99890335  0.68058047     0.21300
C498        C  0.17717832  0.02290016  0.66015371    -0.38600
C499        C  0.14159948  0.01140247  0.63609175     0.20300
C500        C  0.12991291  0.97844352  0.63251004     0.22900
C501        C  0.15311298  0.95434102  0.65298859    -0.39100
C502        C  0.18870650  0.96588614  0.67724462     0.21700
N503        N  0.23858482  0.00325567  0.70322152    -0.32300
C504        C  0.25211398  0.97286424  0.71425690    -0.09900
C505        C  0.22139116  0.94886077  0.69905393    -0.28700
N506        N  0.09735510  0.97365537  0.60648145    -0.45300
C507        C  0.08876790  0.00372691  0.59335395    -0.04600
C508        C  0.11527366  0.02793514  0.61136119    -0.22000
H509        H  0.18755063  0.04848230  0.66216719     0.19900
H510        H  0.14535272  0.92841663  0.64961251     0.18700
H511        H  0.22513275  0.92244200  0.70161790     0.14900
H512        H  0.11677824  0.05385283  0.60626477     0.14800
H513        H  0.25653088  0.02532717  0.70929311     0.33000
H514        H  0.08354214  0.95117219  0.59746592     0.35700
C515        C  0.45688456  0.90779744  0.65491415     0.21300
C516        C  0.44680153  0.89251785  0.62670476    -0.38600
C517        C  0.48568036  0.88108305  0.61762615     0.20300
C518        C  0.53097427  0.88447418  0.63546511     0.22900
C519        C  0.54104119  0.90007401  0.66342557    -0.39100
C520        C  0.50230764  0.91172119  0.67237389     0.21700
N521        N  0.42617835  0.91832527  0.66970632    -0.32300
C522        C  0.45228798  0.92920171  0.69663706    -0.09900
C523        C  0.49992852  0.92578466  0.69901389    -0.28700
N524        N  0.56140774  0.86893836  0.62326055    -0.45300
C525        C  0.53551541  0.85549798  0.59745539    -0.04600
C526        C  0.48809740  0.86286358  0.59290010    -0.22000
H527        H  0.41127412  0.88874269  0.61333175     0.19900
H528        H  0.57637300  0.90195663  0.67765391     0.18700
H529        H  0.52877690  0.93102648  0.71830502     0.14900
H530        H  0.45915782  0.85428847  0.57498440     0.14800
H531        H  0.38970883  0.91718769  0.66235588     0.33000
H532        H  0.59743385  0.86643373  0.63257273     0.35700
loop_ 
_geom_bond_atom_site_label_1 
_geom_bond_atom_site_label_2 
_geom_bond_distance 
_geom_bond_site_symmetry_2 
_ccdc_geom_bond_type 
O1            C4   1.269       .  A
O1           Cd6   2.515   1_545  S
C2           O11   1.263       .  A
C2            O7   1.268       .  A
C2          C522   1.471       .  S
O3            C9   1.267       .  A
O3           Cd6   2.503       .  S
C4           O12   1.263   1_545  A
C4          C468   1.472       .  S
C5           O10   1.271       .  A
C5            O8   1.264       .  A
C5          C504   1.465       .  S
Cd6          O13   2.450       .  S
Cd6          O12   2.422       .  S
Cd6          O11   2.459       .  S
Cd6           O7   2.491       .  S
Cd6          O10   2.488       .  S
Cd6           O8   2.400       .  S
C9           O13   1.264       .  A
C9          C486   1.474       .  S
O14          C17   1.268       .  A
O14         Cd19   2.485       .  S
C15          O24   1.264       .  A
C15          O20   1.267       .  A
C15         C450   1.472       .  S
O16          C22   1.269       .  A
O16         Cd19   2.490       .  S
C17          O25   1.265       .  A
C17         C525   1.470       .  S
C18          O23   1.268       .  A
C18          O21   1.262       .  A
C18         C432   1.476       .  S
Cd19         O26   2.445       .  S
Cd19         O25   2.436       .  S
Cd19         O24   2.453       .  S
Cd19         O20   2.489       .  S
Cd19         O23   2.518       .  S
Cd19         O21   2.440       .  S
C22          O26   1.265       .  A
C22         C417   1.472       .  S
O27          C30   1.268       .  A
O27         Cd32   2.506       .  S
C28          O37   1.263       .  A
C28          O33   1.270       .  A
C28         C399   1.476       .  S
O29          C35   1.271       .  A
O29         Cd32   2.516       .  S
C30          O38   1.264       .  A
C30         C345   1.477   1_545  S
C31          O36   1.267       .  A
C31          O34   1.263       .  A
C31         C360   1.476       .  S
Cd32         O39   2.386       .  S
Cd32         O38   2.475       .  S
Cd32         O37   2.423       .  S
Cd32         O33   2.538       .  S
Cd32         O36   2.520       .  S
Cd32         O34   2.445       .  S
C35          O39   1.263       .  A
C35         C381   1.465       .  S
O40          C43   1.270       .  A
O40         Cd45   2.479       .  S
C41          O50   1.262       .  A
C41          O46   1.268       .  A
C41         C324   1.478       .  S
O42          C48   1.267       .  A
O42         Cd45   2.497       .  S
C43          O51   1.266       .  A
C43         C396   1.474       .  S
C44          O49   1.268       .  A
C44          O47   1.265       .  A
C44         C288   1.467       .  S
Cd45         O52   2.431       .  S
Cd45         O51   2.465       .  S
Cd45         O50   2.448       .  S
Cd45         O46   2.529       .  S
Cd45         O49   2.486       .  S
Cd45         O47   2.435       .  S
C48          O52   1.262       .  A
C48         C309   1.469       .  S
N53          C58   1.353       .  A
N53          C57   1.352   1_655  A
N53          H85   1.035       .  S
N54          C61   1.353       .  A
N54          C62   1.352       .  A
N55          C60   1.354       .  A
N55          C59   1.353   1_655  A
N55          H86   1.038       .  S
N56          C63   1.351       .  A
N56          C64   1.352   1_545  A
C57          C65   1.389       .  A
C57          C73   1.415       .  A
C58          C74   1.410       .  A
C58          C66   1.384       .  A
C59          C67   1.386   1_455  A
C59          C76   1.412   1_565  A
C60          C75   1.416       .  A
C60          C68   1.388       .  A
C61          C73   1.413       .  A
C61          C69   1.386       .  A
C62          C76   1.414       .  A
C62          C70   1.386       .  A
C63          C71   1.385   1_545  A
C63          C74   1.410       .  A
C64          C72   1.387       .  A
C64          C75   1.413       .  A
C65          C66   1.372   1_455  A
C65          H77   1.079       .  S
C66          H78   1.082       .  S
C67          C68   1.376       .  A
C67          H79   1.082   1_655  S
C68          H80   1.082       .  S
C69          C70   1.371       .  A
C69          H81   1.081       .  S
C70          H82   1.082       .  S
C71          C72   1.372       .  A
C71          H83   1.082       .  S
C72          H84   1.082       .  S
C73         C291   1.481       .  S
C74         C378   1.482       .  S
C75         C414   1.490       .  S
C76         C507   1.484       .  S
O87          C90   1.273       .  A
O87         Cd92   2.506       .  S
C88          O97   1.264       .  A
C88          O93   1.271       .  A
C88         C435   1.480       .  S
O89          C95   1.273       .  A
O89         Cd92   2.502       .  S
C90          O98   1.264       .  A
C90         C273   1.475       .  S
C91          O96   1.269       .  A
C91          O94   1.265       .  A
C91         C327   1.475       .  S
Cd92         O99   2.385       .  S
Cd92         O98   2.432       .  S
Cd92         O97   2.453       .  S
Cd92         O93   2.522       .  S
Cd92         O96   2.494       .  S
Cd92         O94   2.446       .  S
C95          O99   1.265       .  A
C95         C252   1.467       .  S
O100        C103   1.267       .  A
O100       Cd105   2.523       .  S
C101        O110   1.270       .  A
C101        O106   1.267       .  A
C101        C270   1.475       .  S
O102        C108   1.261       .  A
O102       Cd105   2.446       .  S
C103        O111   1.262       .  A
C103        C363   1.475   1_556  S
C104        O109   1.267       .  A
C104        O107   1.265       .  A
C104        C237   1.476       .  S
Cd105       O112   2.506       .  S
Cd105       O111   2.438       .  S
Cd105       O110   2.482       .  S
Cd105       O106   2.462       .  S
Cd105       O109   2.505       .  S
Cd105       O107   2.465       .  S
C108        O112   1.268       .  A
C108        C471   1.472       .  S
O113        C116   1.271       .  A
O113       Cd118   2.522       .  S
C114        O123   1.265       .  A
C114        O119   1.271       .  A
C114        C306   1.470       .  S
O115        C121   1.269       .  A
O115       Cd118   2.502       .  S
C116        O124   1.263       .  A
C116        C216   1.477       .  S
C117        O122   1.271       .  A
C117        O120   1.265       .  A
C117        C201   1.472       .  S
Cd118       O125   2.455       .  S
Cd118       O124   2.429       .  S
Cd118       O123   2.428       .  S
Cd118       O119   2.486       .  S
Cd118       O122   2.490       .  S
Cd118       O120   2.430       .  S
C121        O125   1.265       .  A
C121        C453   1.476       .  S
O126        C129   1.267       .  A
O126       Cd131   2.494       .  S
C127        O136   1.263   1_556  A
C127        O132   1.266   1_556  A
C127        C489   1.476       .  S
O128        C134   1.267       .  A
O128       Cd131   2.512       .  S
C129        O137   1.265       .  A
C129        C219   1.478       .  S
C130        O135   1.268       .  A
C130        O133   1.267       .  A
C130        C180   1.475       .  S
Cd131       O138   2.444       .  S
Cd131       O137   2.485       .  S
Cd131       O136   2.464       .  S
Cd131       O132   2.514       .  S
Cd131       O135   2.506       .  S
Cd131       O133   2.442       .  S
C134        O138   1.261       .  A
C134        C342   1.474       .  S
N139        C144   1.352       .  A
N139        C143   1.352   1_655  A
N139        H171   1.041       .  S
N140        C147   1.355       .  A
N140        C148   1.355       .  A
N141        C146   1.355       .  A
N141        C145   1.353   1_655  A
N141        H172   1.040       .  S
N142        C149   1.352       .  A
N142        C150   1.351       .  A
C143        C151   1.387   1_455  A
C143        C159   1.412       .  A
C144        C160   1.412       .  A
C144        C152   1.386       .  A
C145        C153   1.388   1_455  A
C145        C162   1.418       .  A
C146        C161   1.417       .  A
C146        C154   1.386       .  A
C147        C159   1.416       .  A
C147        C155   1.385       .  A
C148        C162   1.420   1_554  A
C148        C156   1.388       .  A
C149        C157   1.386       .  A
C149        C160   1.412   1_556  A
C150        C158   1.386       .  A
C150        C161   1.414       .  A
C151        C152   1.377       .  A
C151        H163   1.082   1_655  S
C152        H164   1.082       .  S
C153        C154   1.378       .  A
C153        H165   1.081   1_655  S
C154        H166   1.081       .  S
C155        C156   1.373       .  A
C155        H167   1.082       .  S
C156        H168   1.081       .  S
C157        C158   1.372       .  A
C157        H169   1.082       .  S
C158        H170   1.082       .  S
C159        C198   1.489       .  S
C160        C183   1.486       .  S
C161        C255   1.492       .  S
C162        C234   1.489       .  S
C173        N179   1.349       .  A
C173        C178   1.384       .  A
C173        C174   1.410       .  A
C174        C175   1.409       .  A
C174        H185   1.082       .  S
C175        C184   1.384       .  A
C175        C176   1.385       .  A
C176        N182   1.339       .  A
C176        C177   1.398       .  A
C177        C178   1.397       .  A
C177        H186   1.082   1_554  S
C178        C181   1.372       .  A
N179        C180   1.359       .  A
N179        H189   1.045       .  S
C180        C181   1.392       .  A
C181        H187   1.082       .  S
N182        C183   1.353       .  A
N182        H190   1.045   1_554  S
C183        C184   1.400       .  A
C184        H188   1.082       .  S
C191        N197   1.343       .  A
C191        C196   1.384       .  A
C191        C192   1.402       .  A
C192        C193   1.402       .  A
C192        H203   1.082       .  S
C193        C202   1.376       .  A
C193        C194   1.385       .  A
C194        N200   1.347       .  A
C194        C195   1.406       .  A
C195        C196   1.405       .  A
C195        H204   1.082       .  S
C196        C199   1.380       .  A
N197        C198   1.355       .  A
N197        H207   1.045       .  S
C198        C199   1.398       .  A
C199        H205   1.082       .  S
N200        C201   1.356       .  A
N200        H208   1.044       .  S
C201        C202   1.395       .  A
C202        H206   1.083       .  S
C209        N215   1.343       .  A
C209        C214   1.384       .  A
C209        C210   1.405       .  A
C210        C211   1.403       .  A
C210        H221   1.082       .  S
C211        C220   1.381       .  A
C211        C212   1.384       .  A
C212        N218   1.346       .  A
C212        C213   1.408       .  A
C213        C214   1.406       .  A
C213        H222   1.082       .  S
C214        C217   1.386       .  A
N215        C216   1.357       .  A
N215        H225   1.045       .  S
C216        C217   1.397       .  A
C217        H223   1.082       .  S
N218        C219   1.358       .  A
N218        H226   1.045       .  S
C219        C220   1.396       .  A
C220        H224   1.082       .  S
C227        N233   1.347       .  A
C227        C232   1.384       .  A
C227        C228   1.409       .  A
C228        C229   1.408       .  A
C228        H239   1.082       .  S
C229        C238   1.385       .  A
C229        C230   1.384       .  A
C230        N236   1.343       .  A
C230        C231   1.402       .  A
C231        C232   1.401       .  A
C231        H240   1.082       .  S
C232        C235   1.376       .  A
N233        C234   1.358       .  A
N233        H243   1.045       .  S
C234        C235   1.394       .  A
C235        H241   1.082       .  S
N236        C237   1.355       .  A
N236        H244   1.045       .  S
C237        C238   1.399       .  A
C238        H242   1.082       .  S
C245        N251   1.337       .  A
C245        C250   1.385       .  A
C245        C246   1.399       .  A
C246        C247   1.397       .  A
C246        H257   1.083       .  S
C247        C256   1.373       .  A
C247        C248   1.384       .  A
C248        N254   1.347       .  A
C248        C249   1.410       .  A
C249        C250   1.408       .  A
C249        H258   1.082       .  S
C250        C253   1.387       .  A
N251        C252   1.353       .  A
N251        H261   1.045       .  S
C252        C253   1.398       .  A
C253        H259   1.082       .  S
N254        C255   1.359       .  A
N254        H262   1.044       .  S
C255        C256   1.395       .  A
C256        H260   1.083       .  S
C263        N269   1.345       .  A
C263        C268   1.384       .  A
C263        C264   1.406       .  A
C264        C265   1.405       .  A
C264        H275   1.082       .  S
C265        C274   1.384       .  A
C265        C266   1.384       .  A
C266        N272   1.343       .  A
C266        C267   1.406       .  A
C267        C268   1.404       .  A
C267        H276   1.082       .  S
C268        C271   1.382       .  A
N269        C270   1.356       .  A
N269        H279   1.045       .  S
C270        C271   1.396       .  A
C271        H277   1.082       .  S
N272        C273   1.357       .  A
N272        H280   1.045       .  S
C273        C274   1.395       .  A
C274        H278   1.082       .  S
C281        N287   1.344       .  A
C281        C286   1.385       .  A
C281        C282   1.402       .  A
C282        C283   1.402       .  A
C282        H293   1.082       .  S
C283        C292   1.375       .  A
C283        C284   1.384       .  A
C284        N290   1.342       .  A
C284        C285   1.401       .  A
C285        C286   1.402       .  A
C285        H294   1.082       .  S
C286        C289   1.374       .  A
N287        C288   1.355       .  A
N287        H297   1.045       .  S
C288        C289   1.394       .  A
C289        H295   1.082       .  S
N290        C291   1.355       .  A
N290        H298   1.045       .  S
C291        C292   1.395       .  A
C292        H296   1.082       .  S
C299        N305   1.345       .  A
C299        C304   1.385       .  A
C299        C300   1.401       .  A
C300        C301   1.402       .  A
C300        H311   1.082       .  S
C301        C310   1.374       .  A
C301        C302   1.385       .  A
C302        N308   1.346       .  A
C302        C303   1.404       .  A
C303        C304   1.404       .  A
C303        H312   1.082       .  S
C304        C307   1.377       .  A
N305        C306   1.354       .  A
N305        H315   1.044       .  S
C306        C307   1.396       .  A
C307        H313   1.083       .  S
N308        C309   1.356       .  A
N308        H316   1.045       .  S
C309        C310   1.394       .  A
C310        H314   1.082       .  S
C317        N323   1.350       .  A
C317        C322   1.384       .  A
C317        C318   1.409       .  A
C318        C319   1.408       .  A
C318        H329   1.082       .  S
C319        C328   1.384       .  A
C319        C320   1.384       .  A
C320        N326   1.343       .  A
C320        C321   1.402       .  A
C321        C322   1.401       .  A
C321        H330   1.082       .  S
C322        C325   1.375       .  A
N323        C324   1.358       .  A
N323        H333   1.044       .  S
C324        C325   1.395       .  A
C325        H331   1.082       .  S
N326        C327   1.355       .  A
N326        H334   1.045       .  S
C327        C328   1.397       .  A
C328        H332   1.082       .  S
C335        N341   1.342       .  A
C335        C340   1.384       .  A
C335        C336   1.405       .  A
C336        C337   1.403       .  A
C336        H347   1.082       .  S
C337        C346   1.382       .  A
C337        C338   1.384       .  A
C338        N344   1.345       .  A
C338        C339   1.407       .  A
C339        C340   1.405       .  A
C339        H348   1.082       .  S
C340        C343   1.384       .  A
N341        C342   1.356       .  A
N341        H351   1.045       .  S
C342        C343   1.396       .  A
C343        H349   1.082       .  S
N344        C345   1.358       .  A
N344        H352   1.045       .  S
C345        C346   1.396       .  A
C346        H350   1.082       .  S
C353        N359   1.340       .  A
C353        C358   1.384       .  A
C353        C354   1.400       .  A
C354        C355   1.399       .  A
C354        H365   1.083       .  S
C355        C364   1.373       .  A
C355        C356   1.384       .  A
C356        N362   1.349       .  A
C356        C357   1.410       .  A
C357        C358   1.410       .  A
C357        H366   1.082       .  S
C358        C361   1.387       .  A
N359        C360   1.354       .  A
N359        H369   1.045       .  S
C360        C361   1.400       .  A
C361        H367   1.082       .  S
N362        C363   1.358       .  A
N362        H370   1.044       .  S
C363        C364   1.393       .  A
C364        H368   1.083       .  S
C371        N377   1.346       .  A
C371        C376   1.384       .  A
C371        C372   1.409       .  A
C372        C373   1.408       .  A
C372        H383   1.082       .  S
C373        C382   1.388       .  A
C373        C374   1.385       .  A
C374        N380   1.335       .  A
C374        C375   1.396       .  A
C375        C376   1.394       .  A
C375        H384   1.083       .  S
C376        C379   1.370       .  A
N377        C378   1.358       .  A
N377        H387   1.044       .  S
C378        C379   1.390       .  A
C379        H385   1.083       .  S
N380        C381   1.351       .  A
N380        H388   1.045       .  S
C381        C382   1.398       .  A
C382        H386   1.082       .  S
C389        N395   1.343       .  A
C389        C394   1.385       .  A
C389        C390   1.400       .  A
C390        C391   1.400       .  A
C390        H401   1.082       .  S
C391        C400   1.372       .  A
C391        C392   1.384       .  A
C392        N398   1.352       .  A
C392        C393   1.410       .  A
C393        C394   1.411       .  A
C393        H402   1.082       .  S
C394        C397   1.384       .  A
N395        C396   1.353       .  A
N395        H405   1.045       .  S
C396        C397   1.400       .  A
C397        H403   1.082       .  S
N398        C399   1.359       .  A
N398        H406   1.044       .  S
C399        C400   1.393       .  A
C400        H404   1.083       .  S
C407        N413   1.342       .  A
C407        C412   1.384       .  A
C407        C408   1.402       .  A
C408        C409   1.402       .  A
C408        H419   1.082       .  S
C409        C418   1.376       .  A
C409        C410   1.385       .  A
C410        N416   1.345       .  A
C410        C411   1.404       .  A
C411        C412   1.404       .  A
C411        H420   1.082       .  S
C412        C415   1.378       .  A
N413        C414   1.357       .  A
N413        H423   1.045       .  S
C414        C415   1.397       .  A
C415        H421   1.082       .  S
N416        C417   1.356       .  A
N416        H424   1.045       .  S
C417        C418   1.395       .  A
C418        H422   1.082       .  S
C425        N431   1.349       .  A
C425        C430   1.384       .  A
C425        C426   1.406       .  A
C426        C427   1.407       .  A
C426        H437   1.082       .  S
C427        C436   1.379       .  A
C427        C428   1.384       .  A
C428        N434   1.348       .  A
C428        C429   1.404       .  A
C429        C430   1.405       .  A
C429        H438   1.082       .  S
C430        C433   1.377       .  A
N431        C432   1.357       .  A
N431        H441   1.045       .  S
C432        C433   1.396       .  A
C433        H439   1.082       .  S
N434        C435   1.356       .  A
N434        H442   1.044       .  S
C435        C436   1.398       .  A
C436        H440   1.082       .  S
C443        N449   1.342       .  A
C443        C448   1.385       .  A
C443        C444   1.402       .  A
C444        C445   1.402       .  A
C444        H455   1.082       .  S
C445        C454   1.377       .  A
C445        C446   1.384       .  A
C446        N452   1.347       .  A
C446        C447   1.407       .  A
C447        C448   1.406       .  A
C447        H456   1.082       .  S
C448        C451   1.382       .  A
N449        C450   1.355       .  A
N449        H459   1.045       .  S
C450        C451   1.397       .  A
C451        H457   1.082       .  S
N452        C453   1.357       .  A
N452        H460   1.044       .  S
C453        C454   1.395       .  A
C454        H458   1.082       .  S
C461        N467   1.349       .  A
C461        C466   1.385       .  A
C461        C462   1.406       .  A
C462        C463   1.407       .  A
C462        H473   1.082       .  S
C463        C472   1.378       .  A
C463        C464   1.385       .  A
C464        N470   1.345       .  A
C464        C465   1.401       .  A
C465        C466   1.401       .  A
C465        H474   1.082       .  S
C466        C469   1.372       .  A
N467        C468   1.357       .  A
N467        H477   1.045       .  S
C468        C469   1.393       .  A
C469        H475   1.082       .  S
N470        C471   1.354       .  A
N470        H478   1.045       .  S
C471        C472   1.397       .  A
C472        H476   1.082       .  S
C479        N485   1.348       .  A
C479        C484   1.384       .  A
C479        C480   1.408       .  A
C480        C481   1.408       .  A
C480        H491   1.082       .  S
C481        C490   1.385       .  A
C481        C482   1.384       .  A
C482        N488   1.343       .  A
C482        C483   1.402       .  A
C483        C484   1.401       .  A
C483        H492   1.082       .  S
C484        C487   1.376       .  A
N485        C486   1.358       .  A
N485        H495   1.045       .  S
C486        C487   1.394       .  A
C487        H493   1.083       .  S
N488        C489   1.355       .  A
N488        H496   1.045       .  S
C489        C490   1.398       .  A
C490        H494   1.082       .  S
C497        N503   1.339   1_565  A
C497        C502   1.385       .  A
C497        C498   1.400   1_565  A
C498        C499   1.398       .  A
C498        H509   1.083       .  S
C499        C508   1.374       .  A
C499        C500   1.384   1_545  A
C500        N506   1.344       .  A
C500        C501   1.406       .  A
C501        C502   1.404       .  A
C501        H510   1.082       .  S
C502        C505   1.382       .  A
N503        C504   1.354   1_545  A
N503        H513   1.045       .  S
C504        C505   1.395       .  A
C505        H511   1.082       .  S
N506        C507   1.356   1_565  A
N506        H514   1.045       .  S
C507        C508   1.394       .  A
C508        H512   1.082       .  S
C515        N521   1.344       .  A
C515        C520   1.384       .  A
C515        C516   1.406       .  A
C516        C517   1.405       .  A
C516        H527   1.082       .  S
C517        C526   1.382       .  A
C517        C518   1.385       .  A
C518        N524   1.341       .  A
C518        C519   1.402       .  A
C519        C520   1.401       .  A
C519        H528   1.082       .  S
C520        C523   1.379       .  A
N521        C522   1.357       .  A
N521        H531   1.045       .  S
C522        C523   1.393       .  A
C523        H529   1.082       .  S
N524        C525   1.354       .  A
N524        H532   1.045       .  S
C525        C526   1.396       .  A
C526        H530   1.082       .  S
