geometry optimzed in LAMMPS
_audit_creation_date              2020-12-01 
_audit_creation_method            'lammps2cif' 
_symmetry_space_group_name_H-M    'P1' 
_symmetry_Int_Tables_number       1 
_symmetry_cell_setting            triclinic 
loop_ 
_symmetry_equiv_pos_as_xyz 
  x,y,z 
_cell_length_a                    39.54774446 
_cell_length_b                    39.539774739509035 
_cell_length_c                    39.519517955054724 
_cell_angle_alpha                 89.9619584142969 
_cell_angle_beta                  90.00507140525627 
_cell_angle_gamma                 90.01144983130871 
loop_ 
_atom_site_label 
_atom_site_type_symbol 
_atom_site_fract_x 
_atom_site_fract_y 
_atom_site_fract_z 
_atom_site_charge 
C1          C  0.70507470  0.70214805  0.66039747     0.80900
N2          N  0.71654529  0.67425848  0.67683265    -0.77400
C3          C  0.70036823  0.66291892  0.70493245     0.83400
N4          N  0.67219564  0.67902654  0.71610950    -0.77300
C5          C  0.66069510  0.70692890  0.69972852     0.83500
N6          N  0.67693477  0.71823837  0.67165687    -0.79100
C7          C  0.49843202  0.66174165  0.49337445     0.80900
N8          N  0.48220325  0.67319193  0.52138371    -0.77400
C9          C  0.49321972  0.70155456  0.53728897     0.83400
N10         N  0.52100109  0.71800951  0.52560675    -0.77300
C11         C  0.53730512  0.70661642  0.49761417     0.83500
N12         N  0.52623134  0.67823868  0.48176222    -0.79100
C13         C  0.70537636  0.49950288  0.53788875     0.80900
N14         N  0.67749197  0.48299580  0.52650585    -0.77400
C15         C  0.66110646  0.49417152  0.49844240     0.83400
N16         N  0.67216569  0.52238464  0.48226992    -0.77300
C17         C  0.70000441  0.53896141  0.49361780     0.83500
N18         N  0.71634646  0.52772127  0.52165987    -0.79100
C19         C  0.49827156  0.53910538  0.70547444     0.80900
N20         N  0.48202691  0.52758069  0.67749166    -0.77400
C21         C  0.49345798  0.49958149  0.66124170     0.83400
N22         N  0.52163402  0.48356852  0.67255958    -0.77300
C23         C  0.53795549  0.49504637  0.70050496     0.83500
N24         N  0.52649264  0.52306823  0.71669127    -0.79100
C25         C  0.49352065  0.70144166  0.66041792     0.80900
N26         N  0.48228490  0.67338673  0.67674419    -0.77400
C27         C  0.49848349  0.66214352  0.70487613     0.83400
N28         N  0.52645358  0.67853743  0.71620019    -0.77300
C29         C  0.53772134  0.70661821  0.69993064     0.83500
N30         N  0.52144531  0.71781623  0.67183128    -0.79100
C31         C  0.69947113  0.66212161  0.49344467     0.80900
N32         N  0.67143903  0.67839863  0.48211775    -0.77400
C33         C  0.66029514  0.70666267  0.49810010     0.83400
N34         N  0.67678160  0.71818378  0.52594555    -0.77300
C35         C  0.70482695  0.70196243  0.53733131     0.83500
N36         N  0.71591706  0.67371260  0.52127715    -0.79100
C37         C  0.70058007  0.53998877  0.70538287     0.80900
N38         N  0.71681824  0.52863208  0.67733786    -0.77400
C39         C  0.70543711  0.50067296  0.66098776     0.83400
N40         N  0.67732933  0.48452225  0.67227707    -0.77300
C41         C  0.66101371  0.49584258  0.70028145     0.83500
N42         N  0.67243116  0.52381378  0.71658969    -0.79100
C43         C  0.46238773  0.59987253  0.43335393     0.80900
N44         N  0.47111247  0.62969382  0.44799277    -0.77400
C45         C  0.48813681  0.62983672  0.47782180     0.83400
N46         N  0.49647376  0.60015343  0.49290934    -0.77300
C47         C  0.48821262  0.57032751  0.47809189     0.83500
N48         N  0.47118276  0.57018164  0.44825772    -0.79100
N49         N  0.29003282  0.60130241  0.15216440    -0.26600
N50         N  0.26135097  0.60144875  0.16935817    -0.34500
C51         C  0.26840139  0.60119392  0.20269202     0.01700
C52         C  0.30312461  0.60087460  0.20633588     0.07800
C53         C  0.31609831  0.60095119  0.17397775    -0.05300
H54         H  0.24967740  0.60128322  0.22266057     0.08400
H55         H  0.34249928  0.60080875  0.16675395     0.09600
Cu56       Cu  0.21436269  0.60208147  0.14610794     0.44200
Cu57       Cu  0.29256756  0.60166228  0.09990658     0.42000
Cu58       Cu  0.21456396  0.60269813  0.05311914     0.43900
N59         N  0.17122482  0.60260738  0.11629140    -0.34000
N60         N  0.17126314  0.60280458  0.08279955    -0.28200
C61         C  0.13911911  0.60301344  0.07170591    -0.04300
C62         C  0.11791999  0.60295984  0.09950835     0.07900
C63         C  0.13907591  0.60270842  0.12733623     0.01700
H64         H  0.13179367  0.60317175  0.04532392     0.09300
H65         H  0.13172143  0.60255116  0.15371282     0.08400
N66         N  0.26179903  0.60221478  0.03021893    -0.35400
N67         N  0.29035735  0.60183954  0.04762793    -0.27600
C68         C  0.31659391  0.60155969  0.02601554    -0.02800
C69         C  0.30388419  0.60176414  0.99354812     0.05800
C70         C  0.26912387  0.60218019  0.99693683     0.03900
H71         H  0.34293285  0.60121954  0.03345183     0.09000
H72         H  0.25055569  0.60242854  0.97681816     0.07800
C73         C  0.46193846  0.60095536  0.76541330     0.80900
N74         N  0.47067772  0.57110420  0.75081107    -0.77400
C75         C  0.48784878  0.57095273  0.72105241     0.83400
N76         N  0.49630814  0.60062222  0.70602422    -0.77300
C77         C  0.48803369  0.63045188  0.72078550     0.83500
N78         N  0.47086586  0.63062953  0.75053750    -0.79100
C79         C  0.73648808  0.60173053  0.76567190     0.80900
N80         N  0.72782220  0.57189755  0.75098736    -0.77400
C81         C  0.71094699  0.57178527  0.72106112     0.83400
N82         N  0.70270326  0.60145979  0.70595302    -0.77300
C83         C  0.71088336  0.63126423  0.72080292     0.83500
N84         N  0.72774681  0.63142147  0.75072851    -0.79100
C85         C  0.73565476  0.60065320  0.43310786     0.80900
N86         N  0.72680756  0.63037905  0.44786450    -0.77400
C87         C  0.70985829  0.63032576  0.47773737     0.83400
N88         N  0.70174126  0.60054447  0.49275956    -0.77300
C89         C  0.71012618  0.57081613  0.47782064     0.83500
N90         N  0.72706833  0.57086887  0.44794385    -0.79100
N91         N  0.90879719  0.60330742  0.15246910    -0.26600
N92         N  0.93750549  0.60373445  0.16961390    -0.34500
C93         C  0.93053216  0.60406056  0.20296493     0.01700
C94         C  0.89581692  0.60383496  0.20669809     0.07800
C95         C  0.88277560  0.60334751  0.17435025    -0.05300
H96         H  0.94930370  0.60434094  0.22288628     0.08400
H97         H  0.85636171  0.60296397  0.16718671     0.09600
Cu98       Cu  0.98440599  0.60362737  0.14621379     0.44200
Cu99       Cu  0.90630896  0.60253823  0.10014821     0.42000
Cu100      Cu  0.98410474  0.60248470  0.05316306     0.43900
N101        N  0.02748227  0.60324954  0.11632649    -0.34000
N102        N  0.02741613  0.60287555  0.08283546    -0.28200
C103        C  0.05955281  0.60274478  0.07172590    -0.04300
C104        C  0.08077289  0.60303155  0.09951504     0.05700
C105        C  0.05963850  0.60333982  0.12735182     0.01700
H106        H  0.06686045  0.60242836  0.04533779     0.09300
H107        H  0.06701092  0.60362012  0.15372041     0.08400
N108        N  0.93684130  0.60206909  0.03032813    -0.35400
N109        N  0.90832408  0.60207047  0.04780290    -0.27600
C110        C  0.88203969  0.60181103  0.02622974    -0.02800
C111        C  0.89468356  0.60163369  0.99372659     0.05800
C112        C  0.92945151  0.60180997  0.99705790     0.03900
H113        H  0.85571516  0.60179732  0.03371150     0.09000
H114        H  0.94798069  0.60178528  0.97690799     0.07800
C115        C  0.59942328  0.43407797  0.46202241     0.80900
N116        N  0.62923086  0.44872431  0.47085677    -0.77400
C117        C  0.62930354  0.47837518  0.48817922     0.83400
N118        N  0.59959727  0.49327362  0.49665635    -0.77300
C119        C  0.56980887  0.47847897  0.48827128     0.83500
N120        N  0.56971133  0.44882573  0.47096115    -0.79100
N121        N  0.60114183  0.15328344  0.28913149    -0.26600
N122        N  0.60154580  0.17042977  0.26039234    -0.34500
C123        C  0.60125216  0.20376244  0.26739031     0.01700
C124        C  0.60061716  0.20745667  0.30213724     0.07800
C125        C  0.60055822  0.17512212  0.31516894    -0.05300
H126        H  0.60153513  0.22369650  0.24861789     0.08400
H127        H  0.60021384  0.16793338  0.34159185     0.09600
Cu128      Cu  0.60257068  0.14712024  0.21338220     0.44200
Cu129      Cu  0.60163374  0.10104198  0.29183569     0.42000
Cu130      Cu  0.60402655  0.05438497  0.21372250     0.43900
N131        N  0.60337807  0.11734606  0.17019210    -0.34000
N132        N  0.60386775  0.08387890  0.17028659    -0.28200
C133        C  0.60413312  0.07274444  0.13814211    -0.04300
C134        C  0.60382050  0.10050808  0.11687748     0.07900
C135        C  0.60335428  0.12834470  0.13799899     0.01700
H136        H  0.60449648  0.04636702  0.13086317     0.09300
H137        H  0.60294438  0.15469695  0.13058824     0.08400
N138        N  0.60333313  0.03144705  0.26096266    -0.35400
N139        N  0.60238309  0.04878084  0.28955537    -0.27600
C140        C  0.60191704  0.02710855  0.31576797    -0.02800
C141        C  0.60262532  0.99468789  0.30300455     0.05800
C142        C  0.60351527  0.99816464  0.26823678     0.03900
H143        H  0.60106169  0.03446788  0.34212253     0.09000
H144        H  0.60413827  0.97810914  0.24962685     0.07800
C145        C  0.59894021  0.76748993  0.46237611     0.80900
N146        N  0.56913782  0.75254537  0.47073150    -0.77400
C147        C  0.56907928  0.72240073  0.48722985     0.83400
N148        N  0.59879280  0.70736485  0.49545835    -0.77300
C149        C  0.62857198  0.72248743  0.48763541     0.83500
N150        N  0.62865295  0.75261330  0.47112170    -0.79100
C151        C  0.59917792  0.76797207  0.73442158     0.80900
N152        N  0.62892559  0.75300960  0.72605337    -0.77400
C153        C  0.62893276  0.72263862  0.71006934     0.83400
N154        N  0.59920830  0.70735694  0.70235973    -0.77300
C155        C  0.56945503  0.72249090  0.71022712     0.83500
N156        N  0.56942681  0.75288334  0.72620564    -0.79100
C157        C  0.59996855  0.43447372  0.73540334     0.80900
N158        N  0.57009488  0.44921834  0.72702398    -0.77400
C159        C  0.56985955  0.47949078  0.71078342     0.83400
N160        N  0.59948735  0.49486348  0.70282270    -0.77300
C161        C  0.62934813  0.47992808  0.71071307     0.83500
N162        N  0.62958879  0.44966903  0.72695372    -0.79100
N163        N  0.60126785  0.04861310  0.90719985    -0.26600
N164        N  0.60184850  0.03129741  0.93582927    -0.34500
C165        C  0.60134599  0.99801035  0.92864619     0.01700
C166        C  0.60036908  0.99453294  0.89388938     0.07800
C167        C  0.60035007  0.02693705  0.88103956    -0.05300
H168        H  0.60164899  0.97796481  0.94730027     0.08400
H169        H  0.59975857  0.03428248  0.85466143     0.09600
Cu170      Cu  0.60314095  0.05438963  0.98292148     0.44200
Cu171      Cu  0.60182291  0.10085591  0.90490196     0.42000
Cu172      Cu  0.60379529  0.14714357  0.98321059     0.43900
N173        N  0.60358729  0.08388043  0.02631492    -0.34000
N174        N  0.60377431  0.11734900  0.02638034    -0.28200
C175        C  0.60390129  0.12834442  0.05855514    -0.04300
C176        C  0.60381348  0.10050384  0.07970491     0.07900
C177        C  0.60361285  0.07273930  0.05847144     0.01700
H178        H  0.60404257  0.15469575  0.06593116     0.09300
H179        H  0.60344017  0.04635655  0.06578043     0.08400
N180        N  0.60327723  0.17028858  0.93613626    -0.35400
N181        N  0.60249034  0.15309243  0.90745778    -0.27600
C182        C  0.60214122  0.17489071  0.88135701    -0.02800
C183        C  0.60275785  0.20723550  0.89430055     0.05800
C184        C  0.60347330  0.20360180  0.92904427     0.03900
H185        H  0.60144313  0.16766717  0.85495873     0.09000
H186        H  0.60400626  0.22356310  0.94775763     0.07800
C187        C  0.53807745  0.49424915  0.49875530     0.80900
N188        N  0.52673441  0.52234574  0.48257719    -0.77400
C189        C  0.49869761  0.53859876  0.49390411     0.83400
N190        N  0.48244287  0.52714869  0.52191394    -0.77300
C191        C  0.49372081  0.49905729  0.53814608     0.83500
N192        N  0.52177703  0.48286531  0.52677576    -0.79100
N193        N  0.04711218  0.29181701  0.60103279    -0.26600
N194        N  0.02983062  0.26317942  0.60121138    -0.34500
C195        C  0.99653921  0.27034466  0.60130387     0.01700
C196        C  0.99298959  0.30509089  0.60117599     0.07800
C197        C  0.02538541  0.31796105  0.60100431    -0.05300
H198        H  0.97652350  0.25167498  0.60142058     0.08400
H199        H  0.03268823  0.34433957  0.60085219     0.09600
Cu200      Cu  0.05288609  0.21603381  0.60125298     0.44200
Cu201      Cu  0.09940028  0.29414431  0.60085852     0.42000
Cu202      Cu  0.14563428  0.21579095  0.60142711     0.43900
N203        N  0.08244044  0.17265713  0.60125603    -0.34000
N204        N  0.11590449  0.17260254  0.60131235    -0.28200
C205        C  0.12692556  0.14044062  0.60131210    -0.04300
C206        C  0.09910624  0.11928306  0.60125450     0.07900
C207        C  0.07133490  0.14050943  0.60121703     0.01700
H208        H  0.15328040  0.13307598  0.60136031     0.09300
H209        H  0.04495835  0.13319579  0.60118015     0.08400
N210        N  0.16880956  0.26281013  0.60150306    -0.35400
N211        N  0.15167251  0.29152731  0.60127334    -0.27600
C212        C  0.17354089  0.31755718  0.60131920    -0.02800
C213        C  0.20585626  0.30450718  0.60158623     0.05800
C214        C  0.20212984  0.26979438  0.60169799     0.03900
H215        H  0.16638915  0.34397265  0.60112445     0.09000
H216        H  0.22204184  0.25102139  0.60185260     0.07800
C217        C  0.43346961  0.46279174  0.59975255     0.80900
N218        N  0.44808017  0.47184401  0.62950999    -0.77400
C219        C  0.47778419  0.48905565  0.62947223     0.83400
N220        N  0.49276556  0.49724176  0.59969823    -0.77300
C221        C  0.47799019  0.48865267  0.56994428     0.83500
N222        N  0.44827446  0.47144411  0.56995589    -0.79100
C223        C  0.76594508  0.46429340  0.59981218     0.80900
N224        N  0.75107092  0.47257569  0.56994210    -0.77400
C225        C  0.72113712  0.48939399  0.56977631     0.83400
N226        N  0.70621188  0.49797081  0.59945589    -0.77300
C227        C  0.72126181  0.49016731  0.62929927     0.83500
N228        N  0.75118061  0.47334286  0.62948832    -0.79100
C229        C  0.76552145  0.73786590  0.59872897     0.80900
N230        N  0.75072653  0.72924763  0.62852955    -0.77400
C231        C  0.72076010  0.71250239  0.62858241     0.83400
N232        N  0.70570416  0.70431708  0.59885776    -0.77300
C233        C  0.72065500  0.71245071  0.56905595     0.83500
N234        N  0.75064093  0.72919883  0.56897507    -0.79100
C235        C  0.43328813  0.73802419  0.59902248     0.80900
N236        N  0.44792978  0.72924171  0.56919696    -0.77400
C237        C  0.47761114  0.71198551  0.56912215     0.83400
N238        N  0.49253353  0.70349441  0.59884590    -0.77300
C239        C  0.47773078  0.71184405  0.62865282     0.83500
N240        N  0.44805510  0.72909287  0.62874833    -0.79100
N241        N  0.04739075  0.90949010  0.60012349    -0.26600
N242        N  0.03004610  0.93808706  0.60017712    -0.34500
C243        C  0.99677529  0.93082564  0.59980061     0.01700
C244        C  0.99331839  0.89606939  0.59948392     0.07800
C245        C  0.02573388  0.88329136  0.59970830    -0.05300
H246        H  0.97671302  0.94943632  0.59973288     0.08400
H247        H  0.03310261  0.85693393  0.59956416     0.09600
Cu248      Cu  0.05291206  0.98533578  0.60067247     0.44200
Cu249      Cu  0.09964573  0.90713706  0.60058110     0.42000
Cu250      Cu  0.14556383  0.98552027  0.60174390     0.43900
N251        N  0.08241920  0.02873989  0.60107231    -0.34000
N252        N  0.11588046  0.02878197  0.60144299    -0.28200
C253        C  0.12691301  0.06094799  0.60156482    -0.04300
C254        C  0.09910183  0.08211178  0.60126685     0.07900
C255        C  0.07132347  0.06088862  0.60096249     0.01700
H256        H  0.15326929  0.06831313  0.60184918     0.09300
H257        H  0.04495519  0.06820333  0.60065913     0.08400
N258        N  0.16896277  0.93855735  0.60171640    -0.35400
N259        N  0.15187808  0.90980880  0.60126292    -0.27600
C260        C  0.17376734  0.88380922  0.60121428    -0.02800
C261        C  0.20606880  0.89688865  0.60166463     0.05800
C262        C  0.20229941  0.93161187  0.60197245     0.03900
H263        H  0.16663674  0.85738725  0.60080329     0.09000
H264        H  0.22219009  0.95040881  0.60226750     0.07800
C265        C  0.29160967  0.83918331  0.60074116     0.17700
C266        C  0.30234740  0.82321718  0.63053197    -0.11400
C267        C  0.33059103  0.80191438  0.63006661    -0.12200
C268        C  0.34821137  0.79643892  0.59979787     0.19300
C269        C  0.33744825  0.81237618  0.56999908    -0.14300
C270        C  0.30920426  0.83367999  0.57046426    -0.12600
C271        C  0.37759085  0.77491148  0.59940712     0.00200
C272        C  0.40268047  0.75756635  0.59915510    -0.32600
C273        C  0.26225035  0.86072707  0.60114535     0.01600
C274        C  0.23705694  0.87791045  0.60144364    -0.34200
H275        H  0.28888314  0.82720677  0.65406632     0.12700
H276        H  0.33871084  0.78977600  0.65327651     0.12500
H277        H  0.35090611  0.80837869  0.54645920     0.12400
H278        H  0.30107809  0.84580978  0.54725818     0.11400
C279        C  0.85104453  0.79565662  0.59899085     0.17700
C280        C  0.84859911  0.82895034  0.61089901    -0.11400
C281        C  0.87702310  0.85002300  0.61074437    -0.12200
C282        C  0.90804380  0.83790836  0.59867438     0.19300
C283        C  0.91051284  0.80459781  0.58680630    -0.14300
C284        C  0.88208080  0.78352038  0.58695909    -0.12600
C285        C  0.93739794  0.85947797  0.59874927     0.00200
C286        C  0.96249954  0.87680760  0.59901198    -0.32600
C287        C  0.82162084  0.77416860  0.59884974     0.01600
C288        C  0.79639276  0.75700986  0.59871828    -0.34200
H289        H  0.82472537  0.83861944  0.62024293     0.12700
H290        H  0.87482371  0.87570091  0.62003093     0.12500
H291        H  0.93438686  0.79493866  0.57746658     0.12400
H292        H  0.88427681  0.75784197  0.57767097     0.11400
C293        C  0.85092845  0.40575737  0.60044167     0.17700
C294        C  0.84710296  0.37095475  0.60605126    -0.11400
C295        C  0.87542665  0.34974638  0.60615095    -0.12200
C296        C  0.90772129  0.36324451  0.60063822     0.19300
C297        C  0.91154190  0.39804142  0.59500471    -0.14300
C298        C  0.88322082  0.41924730  0.59490451    -0.12600
C299        C  0.93697277  0.34153938  0.60087717     0.00200
C300        C  0.96210174  0.32425103  0.60105367    -0.32600
C301        C  0.82170012  0.42749751  0.60024969     0.01600
C302        C  0.79665929  0.44491631  0.60004387    -0.34200
H303        H  0.82224771  0.36023406  0.61033707     0.12700
H304        H  0.87215862  0.32289590  0.61053865     0.12500
H305        H  0.93639328  0.40876174  0.59071952     0.12400
H306        H  0.88649319  0.44609862  0.59051475     0.11400
C307        C  0.29154499  0.36196430  0.60113009     0.17700
C308        C  0.32044652  0.35243889  0.58298846    -0.11400
C309        C  0.34887018  0.37351151  0.58258993    -0.12200
C310        C  0.34851019  0.40421082  0.60030215     0.19300
C311        C  0.31961065  0.41371786  0.61845657    -0.14300
C312        C  0.29119190  0.39264986  0.61885431    -0.12600
C313        C  0.37786184  0.42577188  0.60001245     0.00200
C314        C  0.40289919  0.44319363  0.59982591    -0.32600
C315        C  0.26211631  0.34052842  0.60131837     0.01600
C316        C  0.23684724  0.32346231  0.60147799    -0.34200
H317        H  0.32098440  0.32880054  0.56915141     0.12700
H318        H  0.37109589  0.36588547  0.56849733     0.12500
H319        H  0.31905413  0.43737019  0.63227557     0.12400
H320        H  0.26895865  0.40028951  0.63292121     0.11400
C321        C  0.60117333  0.34877002  0.79290043     0.17700
C322        C  0.57331412  0.32689108  0.79387735    -0.11400
C323        C  0.57357997  0.29876432  0.81537482    -0.12200
C324        C  0.60168600  0.29241263  0.83602374     0.19300
C325        C  0.62957004  0.31425142  0.83500090    -0.14300
C326        C  0.62930503  0.34237526  0.81350350    -0.12600
C327        C  0.60209735  0.26322674  0.85781942     0.00200
C328        C  0.60243566  0.23814120  0.87517892    -0.32600
C329        C  0.60065571  0.37813186  0.77132679     0.01600
C330        C  0.60026483  0.40340740  0.75423056    -0.34200
H331        H  0.55139605  0.33162542  0.77812115     0.12700
H332        H  0.55191845  0.28199262  0.81589218     0.12500
H333        H  0.65147076  0.30953634  0.85078404     0.12400
H334        H  0.65095756  0.35916489  0.81301485     0.11400
C335        C  0.59942437  0.85381211  0.79156145     0.17700
C336        C  0.62997224  0.86629814  0.80447876    -0.11400
C337        C  0.62996319  0.89424216  0.82617258    -0.12200
C338        C  0.59940542  0.90979614  0.83508941     0.19300
C339        C  0.56886684  0.89738149  0.82208602    -0.14300
C340        C  0.56887643  0.86943571  0.80039160    -0.12600
C341        C  0.59946053  0.93878806  0.85710842     0.00200
C342        C  0.59975743  0.96372915  0.87464473    -0.32600
C343        C  0.59934253  0.82447653  0.76999542     0.01600
C344        C  0.59921792  0.79915008  0.75301131    -0.34200
H345        H  0.65373818  0.85436050  0.79790037     0.12700
H346        H  0.65372951  0.90369378  0.83599158     0.12500
H347        H  0.54509998  0.90927442  0.82872466     0.12400
H348        H  0.54509869  0.85993613  0.79063053     0.11400
C349        C  0.59988076  0.85321114  0.40470874     0.17700
C350        C  0.63065052  0.86891942  0.39677236    -0.11400
C351        C  0.63123497  0.89705658  0.37527871    -0.12200
C352        C  0.60105897  0.90961297  0.36156907     0.19300
C353        C  0.57027649  0.89396644  0.36956996    -0.14300
C354        C  0.56969216  0.86582610  0.39106601    -0.12600
C355        C  0.60164826  0.93880935  0.33974037     0.00200
C356        C  0.60214686  0.96385487  0.32229546    -0.32600
C357        C  0.59936579  0.82376473  0.42622667     0.01600
C358        C  0.59907142  0.79848392  0.44335598    -0.34200
H359        H  0.65416390  0.85935763  0.40709863     0.12700
H360        H  0.65517289  0.90899913  0.36935470     0.12500
H361        H  0.54677588  0.90350324  0.35920399     0.12400
H362        H  0.54575615  0.85385514  0.39695184     0.11400
C363        C  0.59998014  0.29260093  0.36044682     0.17700
C364        C  0.57592947  0.29514878  0.38637234    -0.11400
C365        C  0.57579208  0.32333706  0.40777316    -0.12200
C366        C  0.59973613  0.34910123  0.40337319     0.19300
C367        C  0.62383918  0.34649420  0.37750603    -0.14300
C368        C  0.62397519  0.31831387  0.35610843    -0.12600
C369        C  0.59939498  0.37839500  0.42504921     0.00200
C370        C  0.59932542  0.40347257  0.44243595    -0.32600
C371        C  0.60022616  0.26344443  0.33861162     0.01600
C372        C  0.60039311  0.23838726  0.32121934    -0.34200
H373        H  0.55731462  0.27537766  0.39002447     0.12700
H374        H  0.55701810  0.32507344  0.42765777     0.12500
H375        H  0.64246285  0.36626829  0.37384328     0.12400
H376        H  0.64274582  0.31658019  0.33621862     0.11400
C377        C  0.79481048  0.60138366  0.34852003     0.17700
C378        C  0.78160512  0.59602147  0.31606931    -0.11400
C379        C  0.80299771  0.59659667  0.28788228    -0.12200
C380        C  0.83769939  0.60252872  0.29199545     0.19300
C381        C  0.85092515  0.60783631  0.32445185    -0.14300
C382        C  0.82952604  0.60726092  0.35264610    -0.12600
C383        C  0.85956413  0.60321698  0.26285889     0.00200
C384        C  0.87682734  0.60362392  0.23770317    -0.32600
C385        C  0.77283780  0.60093656  0.37758410     0.01600
C386        C  0.75522069  0.60073184  0.40249884    -0.34200
H387        H  0.75481657  0.59144342  0.31256400     0.12700
H388        H  0.79249536  0.59245748  0.26290463     0.12500
H389        H  0.87770616  0.61244267  0.32794446     0.12400
H390        H  0.84002089  0.61143042  0.37762734     0.11400
C391        C  0.83653631  0.60159331  0.90833145     0.17700
C392        C  0.80180411  0.59535693  0.91170960    -0.11400
C393        C  0.78085797  0.59554442  0.88316614    -0.12200
C394        C  0.79453663  0.60197840  0.85109591     0.19300
C395        C  0.82926496  0.60823488  0.84772255    -0.14300
C396        C  0.85021106  0.60804655  0.87626447    -0.12600
C397        C  0.77307393  0.60198121  0.82162931     0.00200
C398        C  0.75580974  0.60188639  0.79645513    -0.32600
C399        C  0.85802141  0.60149876  0.93778058     0.01600
C400        C  0.87532218  0.60150731  0.96292869    -0.34200
H401        H  0.79094067  0.59036105  0.93637651     0.12700
H402        H  0.75405657  0.59065304  0.88609232     0.12500
H403        H  0.84013407  0.61322188  0.82305060     0.12400
H404        H  0.87701165  0.61292499  0.87333772     0.11400
C405        C  0.36193514  0.60146890  0.90812843     0.17700
C406        C  0.39402127  0.61648028  0.90950039    -0.11400
C407        C  0.41491133  0.61641511  0.88091566    -0.12200
C408        C  0.40382918  0.60130972  0.85082273     0.19300
C409        C  0.37175129  0.58628429  0.84947061    -0.14300
C410        C  0.35086459  0.58635101  0.87804877    -0.12600
C411        C  0.42521773  0.60129333  0.82129791     0.00200
C412        C  0.44247073  0.60115480  0.79611307    -0.32600
C413        C  0.34049973  0.60149799  0.93760104     0.01600
C414        C  0.32320162  0.60159207  0.96274067    -0.34200
H415        H  0.40286411  0.62821591  0.93263097     0.12700
H416        H  0.43964851  0.62812737  0.88227097     0.12500
H417        H  0.36289914  0.57454250  0.82634109     0.12400
H418        H  0.32612910  0.57464058  0.87669366     0.11400
C419        C  0.36130340  0.60051010  0.29155948     0.17700
C420        C  0.39642304  0.59811243  0.28742668    -0.11400
C421        C  0.41766227  0.59792186  0.31574126    -0.12200
C422        C  0.40386988  0.60012988  0.34831957     0.19300
C423        C  0.36875260  0.60257473  0.35243745    -0.14300
C424        C  0.34751533  0.60276479  0.32412727    -0.12600
C425        C  0.42561588  0.59987292  0.37755187     0.00200
C426        C  0.44298752  0.59976693  0.40263904    -0.32600
C427        C  0.33953495  0.60064081  0.26236288     0.01600
C428        C  0.32220590  0.60072731  0.23726158    -0.34200
H429        H  0.40735476  0.59637255  0.26235401     0.12700
H430        H  0.44477297  0.59603497  0.31224294     0.12500
H431        H  0.35780930  0.60430929  0.37751414     0.12400
H432        H  0.32040819  0.60464428  0.32762240     0.11400
loop_ 
_geom_bond_atom_site_label_1 
_geom_bond_atom_site_label_2 
_geom_bond_distance 
_geom_bond_site_symmetry_2 
_ccdc_geom_bond_type 
C1            N2   1.358       .  A
C1            N6   1.357       .  A
C1          C231   1.460       .  S
N2            C3   1.358       .  A
C3            N4   1.358       .  A
C3           C83   1.460       .  S
N4            C5   1.357       .  A
C5            N6   1.357       .  A
C5          C153   1.460       .  S
C7            N8   1.358       .  A
C7           N12   1.358       .  A
C7           C45   1.461       .  S
N8            C9   1.358       .  A
C9           N10   1.358       .  A
C9          C237   1.461       .  S
N10          C11   1.358       .  A
C11          N12   1.358       .  A
C11         C147   1.462       .  S
C13          N14   1.358       .  A
C13          N18   1.358       .  A
C13         C225   1.461       .  S
N14          C15   1.358       .  A
C15          N16   1.358       .  A
C15         C117   1.462       .  S
N16          C17   1.358       .  A
C17          N18   1.357       .  A
C17          C89   1.461       .  S
C19          N20   1.358       .  A
C19          N24   1.358       .  A
C19          C75   1.461       .  S
N20          C21   1.358       .  A
C21          N22   1.357       .  A
C21         C219   1.461       .  S
N22          C23   1.357       .  A
C23          N24   1.358       .  A
C23         C159   1.461       .  S
C25          N26   1.358       .  A
C25          N30   1.357       .  A
C25         C239   1.461       .  S
N26          C27   1.358       .  A
C27          N28   1.358       .  A
C27          C77   1.461       .  S
N28          C29   1.358       .  A
C29          N30   1.358       .  A
C29         C155   1.461       .  S
C31          N32   1.358       .  A
C31          N36   1.358       .  A
C31          C87   1.461       .  S
N32          C33   1.358       .  A
C33          N34   1.358       .  A
C33         C149   1.462       .  S
N34          C35   1.358       .  A
C35          N36   1.358       .  A
C35         C233   1.462       .  S
C37          N38   1.358       .  A
C37          N42   1.358       .  A
C37          C81   1.461       .  S
N38          C39   1.358       .  A
C39          N40   1.357       .  A
C39         C227   1.461       .  S
N40          C41   1.357       .  A
C41          N42   1.358       .  A
C41         C161   1.461       .  S
C43          N44   1.358       .  A
C43          N48   1.358       .  A
C43         C426   1.436       .  S
N44          C45   1.358       .  A
C45          N46   1.357       .  A
N46          C47   1.357       .  A
C47          N48   1.358       .  A
C47         C189   1.461       .  S
N49          C53   1.344       .  A
N49          N50   1.322       .  A
N49         Cu57   2.068       .  S
N50          C51   1.347       .  A
N50         Cu56   2.073       .  S
C51          C52   1.381       .  A
C51          H54   1.082       .  S
C52         C428   1.436       .  S
C52          C53   1.378       .  A
C53          H55   1.082       .  S
Cu56         N59   2.073       .  S
Cu57         N67   2.068       .  S
Cu58         N60   2.076       .  S
Cu58         N66   2.076       .  S
N59          C63   1.344       .  A
N59          N60   1.324       .  A
N60          C61   1.345       .  A
C61          C62   1.382       .  A
C61          H64   1.082       .  S
C62         C104   1.469       .  S
C62          C63   1.382       .  A
C63          H65   1.082       .  S
N66          C70   1.347   1_554  A
N66          N67   1.322       .  A
N67          C68   1.344       .  A
C68          C69   1.378   1_554  A
C68          H71   1.082       .  S
C69         C414   1.437       .  S
C69          C70   1.381       .  A
C70          H72   1.082       .  S
C73          N74   1.359       .  A
C73          N78   1.359       .  A
C73         C412   1.437       .  S
N74          C75   1.358       .  A
C75          N76   1.356       .  A
N76          C77   1.356       .  A
C77          N78   1.358       .  A
C79          N80   1.359       .  A
C79          N84   1.359       .  A
C79         C398   1.437       .  S
N80          C81   1.358       .  A
C81          N82   1.356       .  A
N82          C83   1.356       .  A
C83          N84   1.358       .  A
C85          N86   1.358       .  A
C85          N90   1.358       .  A
C85         C386   1.436       .  S
N86          C87   1.358       .  A
C87          N88   1.357       .  A
N88          C89   1.357       .  A
C89          N90   1.358       .  A
N91          C95   1.344       .  A
N91          N92   1.322       .  A
N91         Cu99   2.070       .  S
N92          C93   1.347       .  A
N92         Cu98   2.073       .  S
C93          C94   1.381       .  A
C93          H96   1.082       .  S
C94         C384   1.437       .  S
C94          C95   1.379       .  A
C95          H97   1.082       .  S
Cu98        N101   2.073   1_655  S
Cu99        N109   2.070       .  S
Cu100       N102   2.076   1_655  S
Cu100       N108   2.076       .  S
N101        C105   1.344       .  A
N101        N102   1.324       .  A
N102        C103   1.345       .  A
C103        C104   1.382       .  A
C103        H106   1.082       .  S
C104        C105   1.382       .  A
C105        H107   1.082       .  S
N108        C112   1.347   1_554  A
N108        N109   1.322       .  A
N109        C110   1.344       .  A
C110        C111   1.378   1_554  A
C110        H113   1.082       .  S
C111        C400   1.438       .  S
C111        C112   1.381       .  A
C112        H114   1.082       .  S
C115        N116   1.359       .  A
C115        N120   1.359       .  A
C115        C370   1.437       .  S
N116        C117   1.358       .  A
C117        N118   1.356       .  A
N118        C119   1.356       .  A
C119        N120   1.358       .  A
C119        C187   1.462       .  S
N121        C125   1.344       .  A
N121        N122   1.322       .  A
N121       Cu129   2.068       .  S
N122        C123   1.347       .  A
N122       Cu128   2.075       .  S
C123        C124   1.381       .  A
C123        H126   1.082       .  S
C124        C372   1.437       .  S
C124        C125   1.378       .  A
C125        H127   1.082       .  S
Cu128       N131   2.074       .  S
Cu129       N139   2.069       .  S
Cu130       N132   2.075       .  S
Cu130       N138   2.075       .  S
N131        C135   1.344       .  A
N131        N132   1.323       .  A
N132        C133   1.345       .  A
C133        C134   1.382       .  A
C133        H136   1.082       .  S
C134        C176   1.469       .  S
C134        C135   1.382       .  A
C135        H137   1.082       .  S
N138        C142   1.347   1_545  A
N138        N139   1.323       .  A
N139        C140   1.344       .  A
C140        C141   1.378   1_545  A
C140        H143   1.082       .  S
C141        C356   1.438       .  S
C141        C142   1.381       .  A
C142        H144   1.082       .  S
C145        N146   1.359       .  A
C145        N150   1.359       .  A
C145        C358   1.437       .  S
N146        C147   1.358       .  A
C147        N148   1.356       .  A
N148        C149   1.356       .  A
C149        N150   1.358       .  A
C151        N152   1.358       .  A
C151        N156   1.359       .  A
C151        C344   1.435       .  S
N152        C153   1.357       .  A
C153        N154   1.356       .  A
N154        C155   1.356       .  A
C155        N156   1.358       .  A
C157        N158   1.358       .  A
C157        N162   1.358       .  A
C157        C330   1.436       .  S
N158        C159   1.358       .  A
C159        N160   1.357       .  A
N160        C161   1.357       .  A
C161        N162   1.357       .  A
N163        C167   1.344       .  A
N163        N164   1.322       .  A
N163       Cu171   2.068       .  S
N164        C165   1.347   1_545  A
N164       Cu170   2.074       .  S
C165        C166   1.381       .  A
C165        H168   1.082       .  S
C166        C342   1.437       .  S
C166        C167   1.378   1_565  A
C167        H169   1.082       .  S
Cu170       N173   2.074   1_556  S
Cu171       N181   2.068       .  S
Cu172       N174   2.073   1_556  S
Cu172       N180   2.073       .  S
N173        C177   1.345       .  A
N173        N174   1.323       .  A
N174        C175   1.344       .  A
C175        C176   1.382       .  A
C175        H178   1.082       .  S
C176        C177   1.382       .  A
C177        H179   1.082       .  S
N180        C184   1.347       .  A
N180        N181   1.322       .  A
N181        C182   1.344       .  A
C182        C183   1.378       .  A
C182        H185   1.082       .  S
C183        C328   1.436       .  S
C183        C184   1.381       .  A
C184        H186   1.082       .  S
C187        N188   1.358       .  A
C187        N192   1.358       .  A
N188        C189   1.358       .  A
C189        N190   1.358       .  A
N190        C191   1.358       .  A
C191        N192   1.358       .  A
C191        C221   1.461       .  S
N193        C197   1.344       .  A
N193        N194   1.322       .  A
N193       Cu201   2.070       .  S
N194        C195   1.347   1_455  A
N194       Cu200   2.075       .  S
C195        C196   1.381       .  A
C195        H198   1.082       .  S
C196        C300   1.438       .  S
C196        C197   1.378   1_655  A
C197        H199   1.082       .  S
Cu200       N203   2.076       .  S
Cu201       N211   2.070       .  S
Cu202       N204   2.073       .  S
Cu202       N210   2.073       .  S
N203        C207   1.345       .  A
N203        N204   1.323       .  A
N204        C205   1.344       .  A
C205        C206   1.382       .  A
C205        H208   1.082       .  S
C206        C254   1.470       .  S
C206        C207   1.382       .  A
C207        H209   1.082       .  S
N210        C214   1.346       .  A
N210        N211   1.322       .  A
N211        C212   1.344       .  A
C212        C213   1.378       .  A
C212        H215   1.082       .  S
C213        C316   1.436       .  S
C213        C214   1.380       .  A
C214        H216   1.082       .  S
C217        N218   1.358       .  A
C217        N222   1.359       .  A
C217        C314   1.436       .  S
N218        C219   1.357       .  A
C219        N220   1.356       .  A
N220        C221   1.356       .  A
C221        N222   1.358       .  A
C223        N224   1.359       .  A
C223        N228   1.358       .  A
C223        C302   1.436       .  S
N224        C225   1.358       .  A
C225        N226   1.356       .  A
N226        C227   1.356       .  A
C227        N228   1.358       .  A
C229        N230   1.358       .  A
C229        N234   1.359       .  A
C229        C288   1.436       .  S
N230        C231   1.357       .  A
C231        N232   1.356       .  A
N232        C233   1.356       .  A
C233        N234   1.358       .  A
C235        N236   1.359       .  A
C235        N240   1.358       .  A
C235        C272   1.436       .  S
N236        C237   1.358       .  A
C237        N238   1.357       .  A
N238        C239   1.356       .  A
C239        N240   1.358       .  A
N241        C245   1.344       .  A
N241        N242   1.323       .  A
N241       Cu249   2.069       .  S
N242        C243   1.347   1_455  A
N242       Cu248   2.075       .  S
C243        C244   1.381       .  A
C243        H246   1.082       .  S
C244        C286   1.437       .  S
C244        C245   1.378   1_655  A
C245        H247   1.082       .  S
Cu248       N251   2.075   1_565  S
Cu249       N259   2.069       .  S
Cu250       N252   2.075   1_565  S
Cu250       N258   2.075       .  S
N251        C255   1.345       .  A
N251        N252   1.323       .  A
N252        C253   1.345       .  A
C253        C254   1.382       .  A
C253        H256   1.082       .  S
C254        C255   1.382       .  A
C255        H257   1.082       .  S
N258        C262   1.347       .  A
N258        N259   1.322       .  A
N259        C260   1.344       .  A
C260        C261   1.378       .  A
C260        H263   1.082       .  S
C261        C274   1.437       .  S
C261        C262   1.381       .  A
C262        H264   1.082       .  S
C265        C273   1.440       .  S
C265        C266   1.401       .  A
C265        C270   1.401       .  A
C266        C267   1.399       .  A
C266        H275   1.083       .  S
C267        C268   1.401       .  A
C267        H276   1.084       .  S
C268        C271   1.441       .  S
C268        C269   1.401       .  A
C269        C270   1.399       .  A
C269        H277   1.084       .  S
C270        H278   1.083       .  S
C271        C272   1.206       .  T
C273        C274   1.206       .  T
C279        C287   1.441       .  S
C279        C280   1.402       .  A
C279        C284   1.401       .  A
C280        C281   1.399       .  A
C280        H289   1.084       .  S
C281        C282   1.401       .  A
C281        H290   1.083       .  S
C282        C285   1.440       .  S
C282        C283   1.402       .  A
C283        C284   1.399       .  A
C283        H291   1.083       .  S
C284        H292   1.083       .  S
C285        C286   1.206       .  T
C287        C288   1.206       .  T
C293        C301   1.441       .  S
C293        C294   1.402       .  A
C293        C298   1.401       .  A
C294        C295   1.399       .  A
C294        H303   1.084       .  S
C295        C296   1.401       .  A
C295        H304   1.083       .  S
C296        C299   1.441       .  S
C296        C297   1.402       .  A
C297        C298   1.399       .  A
C297        H305   1.084       .  S
C298        H306   1.083       .  S
C299        C300   1.206       .  T
C301        C302   1.206       .  T
C307        C315   1.440       .  S
C307        C308   1.401       .  A
C307        C312   1.401       .  A
C308        C309   1.399       .  A
C308        H317   1.083       .  S
C309        C310   1.402       .  A
C309        H318   1.084       .  S
C310        C313   1.440       .  S
C310        C311   1.401       .  A
C311        C312   1.399       .  A
C311        H319   1.084       .  S
C312        H320   1.083       .  S
C313        C314   1.206       .  T
C315        C316   1.206       .  T
C321        C329   1.440       .  S
C321        C322   1.401       .  A
C321        C326   1.402       .  A
C322        C323   1.399       .  A
C322        H331   1.083       .  S
C323        C324   1.401       .  A
C323        H332   1.083       .  S
C324        C327   1.440       .  S
C324        C325   1.401       .  A
C325        C326   1.399       .  A
C325        H333   1.083       .  S
C326        H334   1.084       .  S
C327        C328   1.206       .  T
C329        C330   1.206       .  T
C335        C343   1.440       .  S
C335        C336   1.401       .  A
C335        C340   1.401       .  A
C336        C337   1.399       .  A
C336        H345   1.084       .  S
C337        C338   1.401       .  A
C337        H346   1.083       .  S
C338        C341   1.440       .  S
C338        C339   1.401       .  A
C339        C340   1.399       .  A
C339        H347   1.083       .  S
C340        H348   1.084       .  S
C341        C342   1.206       .  T
C343        C344   1.206       .  T
C349        C357   1.441       .  S
C349        C350   1.402       .  A
C349        C354   1.402       .  A
C350        C351   1.399       .  A
C350        H359   1.084       .  S
C351        C352   1.401       .  A
C351        H360   1.083       .  S
C352        C355   1.441       .  S
C352        C353   1.402       .  A
C353        C354   1.400       .  A
C353        H361   1.083       .  S
C354        H362   1.083       .  S
C355        C356   1.206       .  T
C357        C358   1.207       .  T
C363        C371   1.441       .  S
C363        C364   1.402       .  A
C363        C368   1.401       .  A
C364        C365   1.400       .  A
C364        H373   1.083       .  S
C365        C366   1.401       .  A
C365        H374   1.083       .  S
C366        C369   1.441       .  S
C366        C367   1.402       .  A
C367        C368   1.399       .  A
C367        H375   1.084       .  S
C368        H376   1.083       .  S
C369        C370   1.207       .  T
C371        C372   1.206       .  T
C377        C385   1.440       .  S
C377        C378   1.401       .  A
C377        C382   1.402       .  A
C378        C379   1.399       .  A
C378        H387   1.084       .  S
C379        C380   1.402       .  A
C379        H388   1.083       .  S
C380        C383   1.440       .  S
C380        C381   1.401       .  A
C381        C382   1.399       .  A
C381        H389   1.083       .  S
C382        H390   1.084       .  S
C383        C384   1.206       .  T
C385        C386   1.206       .  T
C391        C399   1.441       .  S
C391        C392   1.402       .  A
C391        C396   1.401       .  A
C392        C393   1.399       .  A
C392        H401   1.083       .  S
C393        C394   1.401       .  A
C393        H402   1.084       .  S
C394        C397   1.441       .  S
C394        C395   1.402       .  A
C395        C396   1.399       .  A
C395        H403   1.084       .  S
C396        H404   1.083       .  S
C397        C398   1.207       .  T
C399        C400   1.207       .  T
C405        C413   1.441       .  S
C405        C406   1.402       .  A
C405        C410   1.401       .  A
C406        C407   1.400       .  A
C406        H415   1.083       .  S
C407        C408   1.401       .  A
C407        H416   1.084       .  S
C408        C411   1.441       .  S
C408        C409   1.402       .  A
C409        C410   1.399       .  A
C409        H417   1.084       .  S
C410        H418   1.084       .  S
C411        C412   1.207       .  T
C413        C414   1.206       .  T
C419        C427   1.440       .  S
C419        C420   1.402       .  A
C419        C424   1.401       .  A
C420        C421   1.399       .  A
C420        H429   1.083       .  S
C421        C422   1.401       .  A
C421        H430   1.084       .  S
C422        C425   1.440       .  S
C422        C423   1.402       .  A
C423        C424   1.399       .  A
C423        H431   1.084       .  S
C424        H432   1.083       .  S
C425        C426   1.206       .  T
C427        C428   1.206       .  T
