geometry optimzed in LAMMPS
_audit_creation_date              2020-12-01 
_audit_creation_method            'lammps2cif' 
_symmetry_space_group_name_H-M    'P1' 
_symmetry_Int_Tables_number       1 
_symmetry_cell_setting            triclinic 
loop_ 
_symmetry_equiv_pos_as_xyz 
  x,y,z 
_cell_length_a                    54.53370759 
_cell_length_b                    54.830760270852096 
_cell_length_c                    36.830647551962855 
_cell_angle_alpha                 103.70018196753107 
_cell_angle_beta                  89.29361743224756 
_cell_angle_gamma                 122.38769059215795 
loop_ 
_atom_site_label 
_atom_site_type_symbol 
_atom_site_fract_x 
_atom_site_fract_y 
_atom_site_fract_z 
_atom_site_charge 
N1          N  0.86606106  0.40050610  0.55536758    -0.03300
C2          C  0.89550979  0.42084019  0.56054973    -0.00700
C3          C  0.90719130  0.42729294  0.09744416    -0.23600
C4          C  0.88439721  0.41019099  0.11532400    -0.23800
C5          C  0.85947585  0.39400850  0.08907980    -0.00800
H6          H  0.93012987  0.44163963  0.10933612     0.13000
H7          H  0.88575880  0.40986364  0.14447980     0.13000
N8          N  0.50742190  0.06785366  0.47495034    -0.03300
C9          C  0.49184681  0.03751706  0.46145812    -0.00700
C10         C  0.47715966  0.02856024  0.42570556    -0.23600
C11         C  0.48350616  0.05407072  0.41693368    -0.23800
C12         C  0.50188351  0.07767930  0.44760732    -0.00800
H13         H  0.46370066  0.00584893  0.40766357     0.13000
H14         H  0.47645636  0.05538227  0.39051885     0.13000
N15         N  0.54463064  0.41279510  0.56285729    -0.03300
C16         C  0.52494727  0.42091417  0.56544342    -0.00700
C17         C  0.52173261  0.42898313  0.10242554    -0.23600
C18         C  0.53969754  0.42563862  0.12362966    -0.23800
C19         C  0.55345086  0.41556161  0.09859044    -0.00800
H20         H  0.50787745  0.43681946  0.11314378     0.13000
H21         H  0.54168201  0.42907439  0.15389594     0.13000
Fe22       Fe  0.65661857  0.26816540  0.28517154     1.65800
Fe23       Fe  0.59884808  0.27621272  0.27752385     1.73200
Fe24       Fe  0.66818896  0.33792822  0.30275359     1.54400
O25         O  0.69585562  0.33992997  0.34275752    -0.81500
O26         O  0.60447832  0.29916781  0.23791745    -0.79800
O27         O  0.68635428  0.29412521  0.33416184    -0.84000
O28         O  0.68817670  0.29077992  0.25235529    -0.78900
O29         O  0.64527687  0.34436059  0.34531485    -0.80600
O30         O  0.59095167  0.24044483  0.23364951    -0.83400
C31         C  0.69885504  0.31592598  0.24502068     0.97400
C32         C  0.70069816  0.32178966  0.35166856     1.04800
O33         O  0.64128746  0.29400676  0.28858595    -1.12400
O34         O  0.59015261  0.25191767  0.31619524    -0.74800
O35         O  0.62629450  0.24392895  0.31784787    -0.78300
O36         O  0.69285453  0.33497392  0.26122466    -0.79000
C37         C  0.60261603  0.24078236  0.32837205     0.96300
O38         O  0.62993310  0.23768262  0.23526048    -0.76900
O39         O  0.59919090  0.30909030  0.31958912    -0.82100
C40         C  0.62293424  0.32653721  0.23954270     0.98900
C41         C  0.61783408  0.33243631  0.34505731     1.04800
O42         O  0.64538640  0.34332011  0.26448124    -0.77800
C43         C  0.60481707  0.22869462  0.21984974     1.03100
N44         N  0.08125464  0.48041275  0.39961315    -0.03300
C45         C  0.05169690  0.46142270  0.39658325    -0.00700
C46         C  0.03942224  0.44887599  0.35898422    -0.23600
C47         C  0.06202991  0.46015516  0.33814578    -0.23800
C48         C  0.08733022  0.47934235  0.36364376    -0.00800
H49         H  0.01637006  0.43354520  0.34789746     0.13000
H50         H  0.06027201  0.45487833  0.30767566     0.13000
N51         N  0.43923310  0.82012335  0.47560128    -0.03300
C52         C  0.46250025  0.84899377  0.48830779    -0.00700
C53         C  0.47743341  0.85334649  0.02144702    -0.23600
C54         C  0.46314242  0.82626507  0.02967477    -0.23800
C55         C  0.43997645  0.80652089  0.00116228    -0.00800
H56         H  0.49559288  0.87433911  0.03920737     0.13000
H57         H  0.46833187  0.82168205  0.05451558     0.13000
N58         N  0.41349132  0.48139247  0.39237435    -0.03300
C59         C  0.43328339  0.47337244  0.39014660    -0.00700
C60         C  0.43746416  0.46597841  0.35302200    -0.23600
C61         C  0.41992269  0.46961715  0.33159877    -0.23800
C62         C  0.40573865  0.47931983  0.35631292    -0.00800
H63         H  0.45176593  0.45864949  0.34263377     0.13000
H64         H  0.41866528  0.46684075  0.30144691     0.13000
Fe65       Fe  0.28313406  0.54829809  0.15035391     1.65800
Fe66       Fe  0.35022054  0.61383951  0.17350839     1.73200
Fe67       Fe  0.28854150  0.61544534  0.17443533     1.54400
O68         O  0.25795705  0.58881940  0.12662854    -0.81500
O69         O  0.35778314  0.64956264  0.21772283    -0.79800
O70         O  0.25303735  0.54458604  0.11189930    -0.84000
O71         O  0.25772521  0.54685518  0.19291628    -0.78900
O72         O  0.31554457  0.64258487  0.14167989    -0.80600
O73         O  0.34904881  0.59192330  0.21266280    -0.83400
C74         C  0.25097967  0.56440791  0.21228093     0.97400
C75         C  0.24580705  0.56202229  0.10630534     1.04800
O76         O  0.30717360  0.59254000  0.16600452    -1.12400
O77         O  0.35168777  0.58255241  0.13049589    -0.74800
O78         O  0.30621895  0.54485802  0.10608035    -0.78300
O79         O  0.26031519  0.59016650  0.20782623    -0.79000
C80         C  0.33370839  0.55859131  0.10534515     0.96300
O81         O  0.30957315  0.54592762  0.18732710    -0.76900
O82         O  0.35309591  0.63663597  0.13487509    -0.82100
C83         C  0.34257000  0.65847046  0.23495799     0.98900
C84         C  0.33842788  0.64704999  0.12701208     1.04800
O85         O  0.31562427  0.64588337  0.22383230    -0.77800
C86         C  0.33242495  0.56429685  0.21153686     1.03100
C87         C  0.38912632  0.49086316  0.34441991    -0.01100
C88         C  0.39910427  0.52112613  0.35868948    -0.09100
C89         C  0.38791400  0.53390190  0.34130957    -0.18000
C90         C  0.36633384  0.51652675  0.30901602     0.04400
C91         C  0.35451787  0.48519211  0.29699278     0.18600
C92         C  0.36627200  0.47280782  0.31436743    -0.19400
C93         C  0.33189587  0.46660319  0.26668837    -0.20700
C94         C  0.32157161  0.47866349  0.24686226    -0.19200
C95         C  0.33437934  0.50969290  0.25602322     0.20000
C96         C  0.35682243  0.52914638  0.28734912     0.02100
C97         C  0.36985913  0.56042889  0.29419148    -0.13900
C98         C  0.36170514  0.57184594  0.26999601    -0.11600
C99         C  0.33993693  0.55250482  0.23877472     0.01700
C100        C  0.32576501  0.52141989  0.23278666    -0.23800
H101        H  0.41682332  0.53533766  0.38197824     0.09700
H102        H  0.39701484  0.55749653  0.35321248     0.13200
H103        H  0.35849710  0.44929022  0.30352985     0.12000
H104        H  0.32248995  0.44264472  0.25782231     0.13200
H105        H  0.30432642  0.46373660  0.22313140     0.12200
H106        H  0.38719715  0.57667282  0.31710820     0.09300
H107        H  0.37278391  0.59594979  0.27551247     0.12500
H108        H  0.30884315  0.50616858  0.20878152     0.14400
C109        C  0.40206332  0.48987954  0.92490879    -0.01100
C110        C  0.42148995  0.51185246  0.95696340    -0.09100
C111        C  0.41137528  0.52311873  0.98745260    -0.18000
C112        C  0.38125955  0.51269390  0.98683457     0.04400
C113        C  0.36158610  0.48983473  0.95455055     0.18600
C114        C  0.37207464  0.47870349  0.92423244    -0.19400
C115        C  0.33156813  0.47847794  0.95242653    -0.20700
C116        C  0.32057923  0.48947125  0.98156068    -0.19200
C117        C  0.33929822  0.51225147  0.01360378     0.20000
C118        C  0.36993003  0.52420369  0.01674679     0.02100
C119        C  0.38783526  0.54734777  0.04953111    -0.13900
C120        C  0.37594411  0.55825279  0.07769225    -0.11600
C121        C  0.34573156  0.54649405  0.07464836     0.01700
C122        C  0.32753677  0.52326919  0.04242015    -0.23800
H123        H  0.44474238  0.52100575  0.95792918     0.09700
H124        H  0.42773083  0.54025106  0.01091385     0.13200
H125        H  0.35758327  0.46213353  0.39990130     0.12000
H126        H  0.31645224  0.46102958  0.92790780     0.13200
H127        H  0.29723662  0.48020504  0.97886450     0.12200
H128        H  0.41121532  0.55764694  0.05419530     0.09300
H129        H  0.39064829  0.57601925  0.10223224     0.12500
H130        H  0.30416883  0.51391163  0.03951102     0.14400
C131        C  0.42483481  0.80449231  0.43721028    -0.01100
C132        C  0.44172446  0.80476212  0.40821982    -0.09100
C133        C  0.42889138  0.78342827  0.37316689    -0.18000
C134        C  0.39856098  0.76076736  0.36620557     0.04400
C135        C  0.38108913  0.76252829  0.39439648     0.18600
C136        C  0.39430496  0.78444674  0.42934897    -0.19400
C137        C  0.35073947  0.74152345  0.38821182    -0.20700
C138        C  0.33745941  0.71816100  0.35512255    -0.19200
C139        C  0.35426857  0.71477987  0.32774216     0.20000
C140        C  0.38509199  0.73601272  0.33289677     0.02100
C141        C  0.40124065  0.73077393  0.30530528    -0.13900
C142        C  0.38739957  0.70552451  0.27410775    -0.11600
C143        C  0.35696743  0.68484198  0.26879052     0.01700
C144        C  0.34050326  0.68985994  0.29563170    -0.23800
H145        H  0.46532190  0.82031707  0.41362084     0.09700
H146        H  0.44341636  0.78465032  0.35255924     0.13200
H147        H  0.38098496  0.78493163  0.45113106     0.12000
H148        H  0.33722912  0.74285351  0.40942384     0.13200
H149        H  0.31396396  0.70210671  0.35142867     0.12200
H150        H  0.42470842  0.74541005  0.30745912     0.09300
H151        H  0.40065620  0.70234405  0.25377838     0.12500
H152        H  0.31697490  0.67392766  0.29201097     0.14400
C153        C  0.41805749  0.77564799  0.00208085    -0.01100
C154        C  0.39083784  0.76867000  0.01265993    -0.09100
C155        C  0.37354367  0.74355242  0.02594736    -0.18000
C156        C  0.38387409  0.72555990  0.03072475     0.04400
C157        C  0.41046882  0.73145852  0.01691559     0.18600
C158        C  0.42706371  0.75616438  0.00230746    -0.19400
C159        C  0.42163840  0.71429965  0.02073915    -0.20700
C160        C  0.40823955  0.69294456  0.04074854    -0.19200
C161        C  0.38337865  0.68829477  0.05729958     0.20000
C162        C  0.37017501  0.70369672  0.05140931     0.02100
C163        C  0.34495613  0.69795816  0.06857933    -0.13900
C164        C  0.33447532  0.67921611  0.09246416    -0.11600
C165        C  0.34849274  0.66531672  0.09973457     0.01700
C166        C  0.37241880  0.66927191  0.08108973    -0.23800
H167        H  0.38398857  0.78404289  0.01370794     0.09700
H168        H  0.35325677  0.74012227  0.03462375     0.13200
H169        H  0.44868378  0.76184385  0.49478683     0.12000
H170        H  0.44167127  0.71843006  0.00978312     0.13200
H171        H  0.41810830  0.68089465  0.04464352     0.12200
H172        H  0.33325823  0.70816824  0.06496851     0.09300
H173        H  0.31559878  0.67613043  0.10589486     0.12500
H174        H  0.38315636  0.65822280  0.08591716     0.14400
C175        C  0.10264979  0.49282086  0.93265773    -0.01100
C176        C  0.12220577  0.52389584  0.94594458    -0.09100
C177        C  0.14557852  0.53633694  0.97448965    -0.18000
C178        C  0.15021062  0.51783741  0.99058727     0.04400
C179        C  0.12987913  0.48622561  0.97730465     0.18600
C180        C  0.10610643  0.47437434  0.44876295    -0.19400
C181        C  0.13357480  0.46685665  0.99188624    -0.20700
C182        C  0.15719876  0.47811916  0.01915974    -0.19200
C183        C  0.17766634  0.50908127  0.03280941     0.20000
C184        C  0.17436553  0.52944693  0.01900485     0.02100
C185        C  0.19539605  0.56051010  0.03430464    -0.13900
C186        C  0.21853060  0.57081519  0.06213931    -0.11600
C187        C  0.22185070  0.55068435  0.07549369     0.01700
C188        C  0.20133422  0.51977336  0.06044519    -0.23800
H189        H  0.11954293  0.53861018  0.93380306     0.09700
H190        H  0.15986996  0.56044008  0.98285510     0.13200
H191        H  0.09110148  0.45026551  0.43798709     0.12000
H192        H  0.11772888  0.44292495  0.48196754     0.13200
H193        H  0.15947220  0.46246512  0.02966161     0.12200
H194        H  0.19446182  0.57744339  0.02563217     0.09300
H195        H  0.23397346  0.59480826  0.07325715     0.12500
H196        H  0.20340039  0.50395343  0.07084396     0.14400
C197        C  0.11658158  0.49461548  0.35171822    -0.01100
C198        C  0.13191539  0.52529815  0.35464050    -0.09100
C199        C  0.15654779  0.53869179  0.33634303    -0.18000
C200        C  0.16606305  0.52140249  0.31367972     0.04400
C201        C  0.15050336  0.49027138  0.31146760     0.18600
C202        C  0.12626893  0.47734874  0.33075603    -0.19400
C203        C  0.15818724  0.47184580  0.28841169    -0.20700
C204        C  0.18017767  0.48334833  0.26603003    -0.19200
C205        C  0.19536201  0.51367017  0.26668775     0.20000
C206        C  0.18927267  0.53339993  0.29143984     0.02100
C207        C  0.20611078  0.56404706  0.29191654    -0.13900
C208        C  0.22651248  0.57414228  0.26686383    -0.11600
C209        C  0.23108105  0.55418673  0.24086268     0.01700
C210        C  0.21605479  0.52415573  0.24186222    -0.23800
H211        H  0.12389181  0.53865579  0.36938507     0.09700
H212        H  0.16674534  0.56226050  0.33895510     0.13200
H213        H  0.11381413  0.45338499  0.32776483     0.12000
H214        H  0.14643263  0.44813111  0.28670208     0.13200
H215        H  0.18496395  0.46828185  0.24753637     0.12200
H216        H  0.20379063  0.58069707  0.31100616     0.09300
H217        H  0.23848968  0.59767008  0.26756570     0.12500
H218        H  0.21975613  0.50856698  0.22241911     0.14400
C219        C  0.51109113  0.42457329  0.53467125    -0.01100
C220        C  0.52799591  0.44112409  0.51025592    -0.09100
C221        C  0.51627135  0.45020500  0.48686154    -0.18000
C222        C  0.48713898  0.44299949  0.48741602     0.04400
C223        C  0.46954735  0.42439824  0.51038227     0.18600
C224        C  0.48166920  0.41558524  0.53381531    -0.19400
C225        C  0.44017832  0.41533516  0.51059664    -0.20700
C226        C  0.42784707  0.42454712  0.48860462    -0.19200
C227        C  0.44475871  0.44362607  0.46653212     0.20000
C228        C  0.47480556  0.45351731  0.46608915     0.02100
C229        C  0.49122058  0.47364108  0.44446471    -0.13900
C230        C  0.47786264  0.48182425  0.42221370    -0.11600
C231        C  0.44791422  0.47063318  0.42101544     0.01700
C232        C  0.43161017  0.45225326  0.44408275    -0.23800
H233        H  0.55074784  0.44797247  0.00967194     0.09700
H234        H  0.53033967  0.46245557  0.96801887     0.13200
H235        H  0.46845505  0.40253274  0.55254315     0.12000
H236        H  0.42661711  0.40096918  0.52788181     0.13200
H237        H  0.40496918  0.41687220  0.48909084     0.12200
H238        H  0.51428651  0.48308177  0.44368174     0.09300
H239        H  0.49081971  0.49614027  0.40455610     0.12500
H240        H  0.40834630  0.44326058  0.44286830     0.14400
C241        C  0.57063934  0.40449545  0.11008679    -0.01100
C242        C  0.59486055  0.42349132  0.13819147    -0.09100
C243        C  0.60753835  0.41198844  0.15537617    -0.18000
C244        C  0.59545145  0.38075098  0.14586034     0.04400
C245        C  0.57127778  0.36172100  0.11648118     0.18600
C246        C  0.55970217  0.37386465  0.09815522    -0.19400
C247        C  0.55745769  0.33053649  0.10749633    -0.20700
C248        C  0.56579886  0.31768334  0.12880639    -0.19200
C249        C  0.58884590  0.33577243  0.15872298     0.20000
C250        C  0.60499708  0.36755666  0.16633601     0.02100
C251        C  0.62930468  0.38475784  0.19512956    -0.13900
C252        C  0.63558506  0.37116142  0.21770052    -0.11600
C253        C  0.61798380  0.34000966  0.21236279     0.01700
C254        C  0.59525325  0.32232768  0.18189732    -0.23800
H255        H  0.60325395  0.44720054  0.14792275     0.09700
H256        H  0.62556340  0.42790305  0.17765500     0.13200
H257        H  0.54006596  0.35899005  0.57717183     0.12000
H258        H  0.53861476  0.31577365  0.58537443     0.13200
H259        H  0.55374291  0.29343528  0.12235312     0.12200
H260        H  0.64371688  0.40882633  0.20119276     0.09300
H261        H  0.65386865  0.38536158  0.24026218     0.12500
H262        H  0.58202557  0.29813155  0.17676386     0.14400
C263        C  0.55433792  0.40267833  0.52936597    -0.01100
C264        C  0.53408317  0.38017281  0.49828886    -0.09100
C265        C  0.54337899  0.36894944  0.46683787    -0.18000
C266        C  0.57348553  0.38002458  0.46552841     0.04400
C267        C  0.59394886  0.40333126  0.49695483     0.18600
C268        C  0.58424555  0.41432237  0.52832615    -0.19400
C269        C  0.62398506  0.41535088  0.49711492    -0.20700
C270        C  0.63423181  0.40445022  0.46691983    -0.19200
C271        C  0.61470432  0.38108453  0.43585954     0.20000
C272        C  0.58404718  0.36864285  0.43455146     0.02100
C273        C  0.56533529  0.34505637  0.40255189    -0.13900
C274        C  0.57648249  0.33383694  0.37370764    -0.11600
C275        C  0.60666916  0.34571271  0.37537597     0.01700
C276        C  0.62568040  0.36974378  0.40639256    -0.23800
H277        H  0.51087337  0.37074978  0.49876534     0.09700
H278        H  0.52644289  0.35142840  0.44419569     0.13200
H279        H  0.59998736  0.43195107  0.55226943     0.12000
H280        H  0.63968701  0.43319692  0.52093623     0.13200
H281        H  0.65761078  0.41412615  0.46810578     0.12200
H282        H  0.54190454  0.33450688  0.39913799     0.09300
H283        H  0.56117808  0.31548018  0.35001625     0.12500
H284        H  0.64906324  0.37929662  0.40805075     0.14400
C285        C  0.49062558  0.01560796  0.47924158    -0.01100
C286        C  0.51516876  0.01398173  0.48276961    -0.09100
C287        C  0.51183123  0.98714514  0.48449742    -0.18000
C288        C  0.48358638  0.96093901  0.48167165     0.04400
C289        C  0.45911302  0.96365999  0.48119198     0.18600
C290        C  0.46293021  0.99090429  0.48052120    -0.19400
C291        C  0.43072140  0.93875610  0.47912137    -0.20700
C292        C  0.42537676  0.91035326  0.97533501    -0.19200
C293        C  0.44936002  0.90712707  0.47622695     0.20000
C294        C  0.47856551  0.93205835  0.47845230     0.02100
C295        C  0.50134729  0.92685968  0.47714382    -0.13900
C296        C  0.49557221  0.89869695  0.47655075    -0.11600
C297        C  0.46698578  0.87475525  0.47642536     0.01700
C298        C  0.44383651  0.87875988  0.47476926    -0.23800
H299        H  0.53666392  0.03255676  0.48077739     0.09700
H300        H  0.53159741  0.98722838  0.48616420     0.13200
H301        H  0.44387933  0.99210698  0.47728637     0.12000
H302        H  0.41114641  0.93996398  0.97685962     0.13200
H303        H  0.40313661  0.89131909  0.97328950     0.12200
H304        H  0.52394241  0.94428297  0.47769707     0.09300
H305        H  0.51374909  0.89595913  0.47819958     0.12500
H306        H  0.42156755  0.86006160  0.97401652     0.14400
C307        C  0.51711146  0.10914592  0.44686321    -0.01100
C308        C  0.50123050  0.11977308  0.43504501    -0.09100
C309        C  0.51546889  0.14596920  0.42334521    -0.18000
C310        C  0.54597787  0.16144021  0.42165287     0.04400
C311        C  0.56216425  0.15178689  0.43685483     0.18600
C312        C  0.54766851  0.12620686  0.45017748    -0.19400
C313        C  0.59230558  0.16603147  0.43555775    -0.20700
C314        C  0.60633458  0.18797821  0.41651876    -0.19200
C315        C  0.59056417  0.19633425  0.39874568     0.20000
C316        C  0.56050822  0.18429430  0.40254540     0.02100
C317        C  0.54590164  0.19421291  0.38484867    -0.13900
C318        C  0.55987154  0.21322847  0.36173573    -0.11600
C319        C  0.58881842  0.22313237  0.35577133     0.01700
C320        C  0.60435932  0.21554784  0.37560832    -0.23800
H321        H  0.47751896  0.10678883  0.43278784     0.09700
H322        H  0.50172024  0.15228918  0.41345525     0.13200
H323        H  0.55985338  0.11771891  0.45913729     0.12000
H324        H  0.60478690  0.15900213  0.44751864     0.13200
H325        H  0.62940059  0.19754732  0.41430904     0.12200
H326        H  0.52346734  0.18705746  0.38742382     0.09300
H327        H  0.54757015  0.21938836  0.34751921     0.12500
H328        H  0.62704676  0.22382405  0.37209505     0.14400
C329        C  0.59096424  0.20359313  0.18447808    -0.01100
C330        C  0.60576624  0.19057628  0.16674289    -0.09100
C331        C  0.59258751  0.16699914  0.13344172    -0.18000
C332        C  0.56395049  0.15553679  0.11664327     0.04400
C333        C  0.54910706  0.16887524  0.13475585     0.18600
C334        C  0.56257507  0.19246578  0.16810934    -0.19400
C335        C  0.52084757  0.15873102  0.11945751    -0.20700
C336        C  0.50757337  0.13656626  0.58533340    -0.19200
C337        C  0.52084824  0.12205804  0.06773921     0.20000
C338        C  0.54952143  0.13160142  0.08247975     0.02100
C339        C  0.56248156  0.11705955  0.06190396    -0.13900
C340        C  0.54790818  0.09480778  0.02759817    -0.11600
C341        C  0.52010601  0.08602814  0.51317191     0.01700
C342        C  0.50688669  0.09994907  0.53317962    -0.23800
H343        H  0.62772340  0.19867511  0.17859267     0.09700
H344        H  0.60535583  0.15822306  0.12147535     0.13200
H345        H  0.55076482  0.20220774  0.18135481     0.12000
H346        H  0.50945265  0.16883466  0.13309342     0.14500
H347        H  0.48603917  0.12986593  0.57361810     0.12200
H348        H  0.58413970  0.12297921  0.07108149     0.09300
H349        H  0.55905555  0.08541295  0.01145862     0.12500
H350        H  0.48574427  0.09400135  0.52103965     0.14400
C351        C  0.91444354  0.42908748  0.53082645    -0.01100
C352        C  0.93838857  0.45874142  0.53666057    -0.09100
C353        C  0.96197853  0.46550793  0.51623432    -0.18000
C354        C  0.96262686  0.44246750  0.48998272     0.04400
C355        C  0.93742298  0.41264904  0.98304576     0.18600
C356        C  0.91348119  0.40641298  0.00289923    -0.19400
C357        C  0.93672350  0.38890740  0.95741733    -0.20700
C358        C  0.96057166  0.39399275  0.93871288    -0.19200
C359        C  0.98572833  0.42295563  0.94511623     0.20000
C360        C  0.98738770  0.44772516  0.47096924     0.02100
C361        C  0.01374818  0.47642456  0.47669248    -0.13900
C362        C  0.03635586  0.48064835  0.45501413    -0.11600
C363        C  0.03341375  0.45643615  0.42744163     0.01700
C364        C  0.00869757  0.42742914  0.92416759    -0.23800
H365        H  0.93959170  0.47654475  0.55872006     0.09700
H366        H  0.97984410  0.48873659  0.52268739     0.13200
H367        H  0.89522176  0.38337412  0.99888859     0.12000
H368        H  0.91763438  0.36616506  0.95196012     0.13200
H369        H  0.95923420  0.37510869  0.91882543     0.12200
H370        H  0.01709726  0.49615294  0.49671543     0.09300
H371        H  0.05521880  0.50317968  0.45801348     0.12500
H372        H  0.00645430  0.40856123  0.90300818     0.14400
C373        C  0.72492029  0.33381125  0.38255393    -0.01100
C374        C  0.74403188  0.36492629  0.39799632    -0.09100
C375        C  0.76835264  0.37682997  0.42469886    -0.18000
C376        C  0.77442535  0.35795211  0.43734749     0.04400
C377        C  0.75451982  0.32638772  0.42264094     0.18600
C378        C  0.73032227  0.31467663  0.39527590    -0.19400
C379        C  0.75880418  0.30668982  0.43550451    -0.20700
C380        C  0.78196868  0.31762816  0.46338042    -0.19200
C381        C  0.80199143  0.34855736  0.47833148     0.20000
C382        C  0.79909612  0.36920326  0.46467639     0.02100
C383        C  0.82099789  0.40016914  0.47912784    -0.13900
C384        C  0.84374783  0.41017333  0.50744247    -0.11600
C385        C  0.84527521  0.38980620  0.52248830     0.01700
C386        C  0.82466181  0.35900472  0.50733200    -0.23800
H387        H  0.74052096  0.38035304  0.38892108     0.09700
H388        H  0.78183948  0.40094683  0.43522911     0.13200
H389        H  0.71570532  0.29057305  0.38383308     0.12000
H390        H  0.74378778  0.28261302  0.42444821     0.13200
H391        H  0.78423476  0.30175783  0.47333636     0.12200
H392        H  0.82107309  0.41719701  0.46922281     0.09300
H393        H  0.85961454  0.43404248  0.51878104     0.12500
H394        H  0.82611125  0.34322528  0.51868111     0.14400
C395        C  0.82997249  0.37574545  0.09924229    -0.01100
C396        C  0.81118852  0.38583374  0.10135076    -0.09100
C397        C  0.78702987  0.37392554  0.12076067    -0.18000
C398        C  0.78114078  0.35153223  0.13875360     0.04400
C399        C  0.79860928  0.33927160  0.13302597     0.18600
C400        C  0.82303936  0.35172633  0.11380225    -0.19400
C401        C  0.79243948  0.31570488  0.14811248    -0.20700
C402        C  0.77009585  0.30498462  0.17037547    -0.19200
C403        C  0.75406895  0.31826534  0.17911571     0.20000
C404        C  0.75933105  0.34168207  0.16329479     0.02100
C405        C  0.74370881  0.35541816  0.17436299    -0.13900
C406        C  0.72414549  0.34669888  0.20048332    -0.11600
C407        C  0.71899656  0.32371810  0.21620109     0.01700
C408        C  0.73360093  0.30909588  0.20472848    -0.23800
H409        H  0.81629340  0.40434960  0.09008151     0.09700
H410        H  0.77385260  0.38322380  0.12198072     0.13200
H411        H  0.83763628  0.34383697  0.61163254     0.12000
H412        H  0.80535342  0.30586560  0.64293314     0.13200
H413        H  0.76614146  0.28701608  0.18208116     0.12200
H414        H  0.74682323  0.37368398  0.16435936     0.09300
H415        H  0.71304524  0.35826059  0.20855081     0.12500
H416        H  0.72991719  0.29139009  0.21682420     0.14400
N417        N  0.86603817  0.40045730  0.05552057    -0.03300
C418        C  0.89547791  0.42089771  0.06076270    -0.00700
C419        C  0.90726138  0.42709608  0.59716043    -0.23600
C420        C  0.88446483  0.41002001  0.61505919    -0.23800
C421        C  0.85951674  0.39399915  0.58888621    -0.00800
H422        H  0.93021702  0.44132610  0.60897922     0.13000
H423        H  0.88584639  0.40959109  0.64416785     0.13000
N424        N  0.50707205  0.06793579  0.97499768    -0.03300
C425        C  0.49096892  0.03756271  0.96168750    -0.00700
C426        C  0.47599818  0.02872266  0.92616157    -0.23600
C427        C  0.48266011  0.05432211  0.91738433    -0.23800
C428        C  0.50151700  0.07788455  0.94780757    -0.00800
H429        H  0.46215428  0.00601573  0.90823671     0.13000
H430        H  0.47545252  0.05570029  0.89112409     0.13000
N431        N  0.54485482  0.41279573  0.06263576    -0.03300
C432        C  0.52524318  0.42101385  0.06510690    -0.00700
C433        C  0.52135113  0.42867825  0.60277062    -0.23600
C434        C  0.53936132  0.42531948  0.62387276    -0.23800
C435        C  0.55321994  0.41544677  0.59875285    -0.00800
H436        H  0.50743832  0.43641905  0.61356393     0.13000
H437        H  0.54131670  0.42861829  0.65411381     0.13000
Fe438      Fe  0.65678204  0.26825049  0.78498078     1.65800
Fe439      Fe  0.59904420  0.27632283  0.77729834     1.73200
Fe440      Fe  0.66841183  0.33803987  0.80243243     1.54400
O441        O  0.69615304  0.34010444  0.84242785    -0.81500
O442        O  0.60465559  0.29927106  0.73770168    -0.79800
O443        O  0.68664535  0.29430175  0.83383976    -0.84000
O444        O  0.68820495  0.29075202  0.75195792    -0.78900
O445        O  0.64555804  0.34451511  0.84502551    -0.80600
O446        O  0.59111154  0.24056080  0.73341324    -0.83400
C447        C  0.69888191  0.31588652  0.74458365     0.97400
C448        C  0.70101530  0.32196964  0.85132125     1.04800
O449        O  0.64148026  0.29410858  0.78834344    -1.12400
O450        O  0.59032633  0.25199516  0.81594302    -0.74800
O451        O  0.62654677  0.24414149  0.81783443    -0.78300
O452        O  0.69298356  0.33500095  0.76084803    -0.79000
C453        C  0.60281067  0.24091985  0.82823141     0.96300
O454        O  0.62997304  0.23761554  0.73522501    -0.76900
O455        O  0.59945473  0.30920523  0.81938777    -0.82100
C456        C  0.62311559  0.32662226  0.73925517     0.98900
C457        C  0.61811677  0.33255583  0.84483118     1.04800
O458        O  0.64558732  0.34342379  0.76416197    -0.77800
C459        C  0.60489645  0.22868577  0.71975144     1.03100
N460        N  0.08127744  0.48006910  0.89979059    -0.03300
C461        C  0.05171618  0.46113983  0.89682476    -0.00700
C462        C  0.03939961  0.44861961  0.85923963    -0.23600
C463        C  0.06198286  0.45986760  0.83835108    -0.23800
C464        C  0.08731066  0.47900602  0.86380726    -0.00800
H465        H  0.01633316  0.43335710  0.84819892     0.13000
H466        H  0.06018562  0.45463570  0.80788039     0.13000
N467        N  0.43917623  0.82027730  0.97550693    -0.03300
C468        C  0.46248330  0.84914963  0.98811812    -0.00700
C469        C  0.47747042  0.85315495  0.52158754    -0.23600
C470        C  0.46324677  0.82601987  0.52966913    -0.23800
C471        C  0.44009882  0.80629547  0.50111870    -0.00800
H472        H  0.49561586  0.87414130  0.53937916     0.13000
H473        H  0.46846409  0.82138356  0.55444123     0.13000
N474        N  0.41270371  0.48038943  0.89184643    -0.03300
C475        C  0.43252573  0.47239740  0.88959241    -0.00700
C476        C  0.43653636  0.46481492  0.85242595    -0.23600
C477        C  0.41887270  0.46830836  0.83100691    -0.23800
C478        C  0.40477841  0.47811449  0.85575293    -0.00800
H479        H  0.45082850  0.45748078  0.84200686     0.13000
H480        H  0.41751347  0.46541634  0.80083184     0.13000
Fe481      Fe  0.28283153  0.54813583  0.65026933     1.65800
Fe482      Fe  0.34997571  0.61363967  0.67375056     1.73200
Fe483      Fe  0.28834169  0.61535389  0.67441810     1.54400
O484        O  0.25766545  0.58869061  0.62670766    -0.81500
O485        O  0.35750180  0.64922719  0.71811779    -0.79800
O486        O  0.25282344  0.54449967  0.61173847    -0.84000
O487        O  0.25738458  0.54673971  0.69277125    -0.78900
O488        O  0.31531802  0.64236639  0.64154383    -0.80600
O489        O  0.34866322  0.59148154  0.71268370    -0.83400
C490        C  0.25076959  0.56436237  0.71228384     0.97400
C491        C  0.24554868  0.56193339  0.60627897     1.04800
O492        O  0.30693205  0.59239379  0.66604839    -1.12400
O493        O  0.35144866  0.58247369  0.63062256    -0.74800
O494        O  0.30601856  0.54470876  0.60611075    -0.78300
O495        O  0.26019137  0.59017031  0.70793593    -0.79000
C496        C  0.33352413  0.55850427  0.60545935     0.96300
O497        O  0.30911142  0.54557349  0.68723609    -0.76900
O498        O  0.35306740  0.63669321  0.63533409    -0.82100
C499        C  0.34234653  0.65832151  0.73508592     0.98900
C500        C  0.33835859  0.64699324  0.62720366     1.04800
O501        O  0.31547729  0.64592684  0.72371747    -0.77800
C502        C  0.33198593  0.56383145  0.71142708     1.03100
C503        C  0.38823939  0.48973398  0.84384749    -0.01100
C504        C  0.39832549  0.52002443  0.85811653    -0.09100
C505        C  0.38722287  0.53288235  0.84076985    -0.18000
C506        C  0.36563397  0.51557792  0.80848444     0.04400
C507        C  0.35371627  0.48422226  0.79642744     0.18600
C508        C  0.36536947  0.47174164  0.81379583    -0.19400
C509        C  0.33110345  0.46571690  0.76609345    -0.20700
C510        C  0.32089917  0.47788275  0.74627065    -0.19200
C511        C  0.33378992  0.50893149  0.75549916     0.20000
C512        C  0.35621411  0.52829486  0.78686544     0.02100
C513        C  0.36931188  0.55959466  0.79382335    -0.13900
C514        C  0.36121682  0.57112218  0.76973993    -0.11600
C515        C  0.33945642  0.55188352  0.73849239     0.01700
C516        C  0.32525548  0.52077277  0.73233540    -0.23800
H517        H  0.41606434  0.53419400  0.88138547     0.09700
H518        H  0.39641322  0.55649452  0.85269467     0.13200
H519        H  0.35751145  0.44820210  0.80294751     0.12000
H520        H  0.32161791  0.44174344  0.75719592     0.13200
H521        H  0.30366353  0.46301933  0.72251474     0.12200
H522        H  0.38664063  0.57578069  0.81677810     0.09300
H523        H  0.37232610  0.59523717  0.77537742     0.12500
H524        H  0.30834912  0.50559710  0.70829205     0.14400
C525        C  0.40269848  0.49066741  0.42540403    -0.01100
C526        C  0.42200678  0.51253539  0.45759899    -0.09100
C527        C  0.41174412  0.52359745  0.48808415    -0.18000
C528        C  0.38159388  0.51304834  0.48731712     0.04400
C529        C  0.36202541  0.49018368  0.45496787     0.18600
C530        C  0.37267183  0.47930880  0.42461610    -0.19400
C531        C  0.33195173  0.47855278  0.45282734    -0.20700
C532        C  0.32080744  0.48930017  0.48199527    -0.19200
C533        C  0.33943891  0.51218645  0.51401222     0.20000
C534        C  0.37012839  0.52443051  0.51715308     0.02100
C535        C  0.38796499  0.54778679  0.54980234    -0.13900
C536        C  0.37594373  0.55858533  0.57786469    -0.11600
C537        C  0.34566464  0.54649650  0.57486010     0.01700
C538        C  0.32754059  0.52306647  0.54276409    -0.23800
H539        H  0.44527915  0.52176585  0.45868142     0.09700
H540        H  0.42800422  0.54063527  0.51168510     0.13200
H541        H  0.35689233  0.46148987  0.89960698     0.12000
H542        H  0.31691074  0.46106696  0.42828194     0.13200
H543        H  0.29742217  0.47981227  0.47930259     0.12200
H544        H  0.41139444  0.55838689  0.55438862     0.09300
H545        H  0.39060842  0.57654819  0.60228446     0.12500
H546        H  0.30412731  0.51346944  0.53988068     0.14400
C547        C  0.42470470  0.80453480  0.93715228    -0.01100
C548        C  0.44153454  0.80482820  0.90807771    -0.09100
C549        C  0.42867123  0.78342244  0.87307327    -0.18000
C550        C  0.39836975  0.76066410  0.86624056     0.04400
C551        C  0.38094625  0.76235449  0.89453665     0.18600
C552        C  0.39418721  0.78434505  0.92942965    -0.19400
C553        C  0.35062365  0.74122959  0.88850826    -0.20700
C554        C  0.33731987  0.71785080  0.85543889    -0.19200
C555        C  0.35408376  0.71456648  0.82792639     0.20000
C556        C  0.38488408  0.73589266  0.83294825     0.02100
C557        C  0.40099846  0.73073804  0.80523316    -0.13900
C558        C  0.38714864  0.70547305  0.77405744    -0.11600
C559        C  0.35674036  0.68470516  0.76888039     0.01700
C560        C  0.34030154  0.68964721  0.79581791    -0.23800
H561        H  0.46512014  0.82047050  0.91336941     0.09700
H562        H  0.44315459  0.78467954  0.85239538     0.13200
H563        H  0.38090370  0.78478819  0.95127815     0.12000
H564        H  0.33715291  0.74249308  0.90981576     0.13200
H565        H  0.31384647  0.70171579  0.85185702     0.12200
H566        H  0.42444743  0.74545115  0.80727286     0.09300
H567        H  0.40037288  0.70234788  0.75362714     0.12500
H568        H  0.31679113  0.67364369  0.79228531     0.14400
C569        C  0.41820796  0.77539509  0.50194974    -0.01100
C570        C  0.39090788  0.76832437  0.51228842    -0.09100
C571        C  0.37363640  0.74325810  0.52567305    -0.18000
C572        C  0.38406453  0.72541906  0.53079174     0.04400
C573        C  0.41072552  0.73136791  0.51716429     0.18600
C574        C  0.42730381  0.75601869  0.50245583    -0.19400
C575        C  0.42196496  0.71432236  0.52126669    -0.20700
C576        C  0.40854283  0.69301622  0.54134390    -0.19200
C577        C  0.38360570  0.68832411  0.55771884     0.20000
C578        C  0.37037327  0.70365028  0.55160736     0.02100
C579        C  0.34512396  0.69793440  0.56868448    -0.13900
C580        C  0.33457582  0.67920905  0.59258587    -0.11600
C581        C  0.34856092  0.66531253  0.59998626     0.01700
C582        C  0.37257869  0.66931779  0.58152917    -0.23800
H583        H  0.38398651  0.78361717  0.51314442     0.09700
H584        H  0.35327731  0.73975131  0.53414761     0.13200
H585        H  0.44838820  0.76192580  0.99446947     0.12000
H586        H  0.44205202  0.71849154  0.51045211     0.13200
H587        H  0.41844503  0.68103564  0.54542330     0.12200
H588        H  0.33344616  0.70814657  0.56498594     0.09300
H589        H  0.31566109  0.67612326  0.60591500     0.12500
H590        H  0.38331390  0.65829766  0.58649198     0.14400
C591        C  0.10258146  0.49312996  0.43252364    -0.01100
C592        C  0.12215686  0.52420034  0.44587720    -0.09100
C593        C  0.14546416  0.53658650  0.47450604    -0.18000
C594        C  0.15000863  0.51803385  0.49061095     0.04400
C595        C  0.12961499  0.48643472  0.47731421     0.18600
C596        C  0.10629119  0.47410697  0.94884301    -0.19400
C597        C  0.13316428  0.46701373  0.49197760    -0.20700
C598        C  0.15671377  0.47820728  0.51933360    -0.19200
C599        C  0.17728304  0.50914986  0.53293695     0.20000
C600        C  0.17413254  0.52957130  0.51904597     0.02100
C601        C  0.19530194  0.56061120  0.53423931    -0.13900
C602        C  0.21842168  0.57084171  0.56205726    -0.11600
C603        C  0.22158749  0.55065533  0.57550285     0.01700
C604        C  0.20092509  0.51976562  0.56057526    -0.23800
H605        H  0.11955842  0.53895095  0.43373235     0.09700
H606        H  0.15976778  0.56068963  0.48294694     0.13200
H607        H  0.09132185  0.44999186  0.93808663     0.12000
H608        H  0.11819989  0.44275777  0.98187306     0.13200
H609        H  0.15887037  0.46251181  0.52990091     0.12200
H610        H  0.19451009  0.57758271  0.52545810     0.09300
H611        H  0.23398762  0.59482059  0.57307670     0.12500
H612        H  0.20287397  0.50390853  0.57105026     0.14400
C613        C  0.11654292  0.49435357  0.85184610    -0.01100
C614        C  0.13176715  0.52502289  0.85472090    -0.09100
C615        C  0.15639535  0.53848614  0.83643974    -0.18000
C616        C  0.16601614  0.52127714  0.81383948     0.04400
C617        C  0.15058340  0.49016451  0.81170303     0.18600
C618        C  0.12633933  0.47716990  0.83095710    -0.19400
C619        C  0.15840791  0.47182299  0.78876408    -0.20700
C620        C  0.18040794  0.48338168  0.76641439    -0.19200
C621        C  0.19543629  0.51367083  0.76695502     0.20000
C622        C  0.18920696  0.53332844  0.79158750     0.02100
C623        C  0.20587357  0.56394764  0.79191131    -0.13900
C624        C  0.22623527  0.57406348  0.76681540    -0.11600
C625        C  0.23093056  0.55415899  0.74092700     0.01700
C626        C  0.21609312  0.52417995  0.74210175    -0.23800
H627        H  0.12366411  0.53831464  0.86942668     0.09700
H628        H  0.16651021  0.56203726  0.83902791     0.13200
H629        H  0.11397444  0.45321598  0.82801304     0.12000
H630        H  0.14675909  0.44812670  0.78712336     0.13200
H631        H  0.18530661  0.46837534  0.74801252     0.12200
H632        H  0.20343298  0.58055020  0.81088699     0.09300
H633        H  0.23806672  0.59755917  0.76738420     0.12500
H634        H  0.21990383  0.50863645  0.72276331     0.14400
C635        C  0.51122912  0.42442614  0.03421305    -0.01100
C636        C  0.52794434  0.44070584  0.00945544    -0.09100
C637        C  0.51607880  0.44964271  0.98600649    -0.18000
C638        C  0.48700169  0.44257341  0.98686125     0.04400
C639        C  0.46959202  0.42422535  0.01016995     0.18600
C640        C  0.48184123  0.41553506  0.03361575    -0.19400
C641        C  0.44028145  0.41530607  0.01073083    -0.20700
C642        C  0.42782540  0.42440735  0.98874397    -0.19200
C643        C  0.44455350  0.44323398  0.96631949     0.20000
C644        C  0.47454537  0.45298614  0.96552334     0.02100
C645        C  0.49078083  0.47287550  0.94355816    -0.13900
C646        C  0.47728726  0.48095101  0.92132914    -0.11600
C647        C  0.44737061  0.46987046  0.92046831     0.01700
C648        C  0.43126448  0.45173818  0.94387494    -0.23800
H649        H  0.55083153  0.44847331  0.51069854     0.09700
H650        H  0.53067859  0.46321608  0.46914375     0.13200
H651        H  0.46876183  0.40268229  0.05259171     0.12000
H652        H  0.42686169  0.40113981  0.02829178     0.13200
H653        H  0.40499400  0.41684445  0.98950977     0.12200
H654        H  0.51380432  0.48220434  0.94249236     0.09300
H655        H  0.49010249  0.49507956  0.90341448     0.12500
H656        H  0.40802755  0.44282594  0.94293422     0.14400
C657        C  0.57045837  0.40438356  0.61005377    -0.01100
C658        C  0.59487178  0.42341528  0.63787079    -0.09100
C659        C  0.60764085  0.41191615  0.65488998    -0.18000
C660        C  0.59543927  0.38065859  0.64552342     0.04400
C661        C  0.57106845  0.36159918  0.61641590     0.18600
C662        C  0.55941402  0.37373125  0.59822060    -0.19400
C663        C  0.55712879  0.33040854  0.60761077    -0.20700
C664        C  0.56553695  0.31758831  0.62888461    -0.19200
C665        C  0.58877168  0.33571155  0.65856098     0.20000
C666        C  0.60505048  0.36748320  0.66593623     0.02100
C667        C  0.62953532  0.38469699  0.69447249    -0.13900
C668        C  0.63586199  0.37114702  0.71707529    -0.11600
C669        C  0.61813405  0.34003257  0.71201122     0.01700
C670        C  0.59523255  0.32231905  0.68175476    -0.23800
H671        H  0.60335246  0.44714853  0.64751056     0.09700
H672        H  0.62582704  0.42785470  0.67695839     0.13200
H673        H  0.54049164  0.35913501  0.07689310     0.12000
H674        H  0.53909314  0.31592057  0.08505651     0.13200
H675        H  0.55338203  0.29334437  0.62260854     0.12200
H676        H  0.64404466  0.40874187  0.70031511     0.09300
H677        H  0.65428281  0.38535857  0.73945097     0.12500
H678        H  0.58190103  0.29814259  0.67681966     0.14400
C679        C  0.55456883  0.40258954  0.02922591    -0.01100
C680        C  0.53432320  0.38004544  0.99817357    -0.09100
C681        C  0.54363137  0.36879223  0.96677329    -0.18000
C682        C  0.57374250  0.37988323  0.96548473     0.04400
C683        C  0.59419701  0.40319816  0.99690871     0.18600
C684        C  0.58447880  0.41420873  0.02824064    -0.19400
C685        C  0.62423808  0.41523307  0.99707969    -0.20700
C686        C  0.63450128  0.40438040  0.96685867    -0.19200
C687        C  0.61498276  0.38103726  0.93577567     0.20000
C688        C  0.58431680  0.36853742  0.93450183     0.02100
C689        C  0.56560554  0.34494830  0.90251044    -0.13900
C690        C  0.57676346  0.33381221  0.87360746    -0.11600
C691        C  0.60696057  0.34577115  0.87521146     0.01700
C692        C  0.62597251  0.36978083  0.90624205    -0.23800
H693        H  0.51111288  0.37063257  0.99862163     0.09700
H694        H  0.52669810  0.35125670  0.94413613     0.13200
H695        H  0.60021284  0.43185875  0.05217672     0.12000
H696        H  0.63993247  0.43307709  0.02090841     0.13200
H697        H  0.65788487  0.41408707  0.96803037     0.12200
H698        H  0.54216493  0.33433156  0.89913817     0.09300
H699        H  0.56145720  0.31545237  0.84991994     0.12500
H700        H  0.64936241  0.37937979  0.90785591     0.14400
C701        C  0.48968334  0.01549017  0.97924695    -0.01100
C702        C  0.51435646  0.01416916  0.98344094    -0.09100
C703        C  0.51117710  0.98737776  0.98510424    -0.18000
C704        C  0.48298557  0.96092960  0.98158841     0.04400
C705        C  0.45833862  0.96332424  0.98045675     0.18600
C706        C  0.46198055  0.99050744  0.97985799    -0.19400
C707        C  0.42997667  0.93817611  0.97768462    -0.20700
C708        C  0.42591509  0.91085718  0.47683351    -0.19200
C709        C  0.44900821  0.90694357  0.97538487     0.20000
C710        C  0.47818874  0.93212675  0.97832668     0.02100
C711        C  0.50116832  0.92724446  0.97766422    -0.13900
C712        C  0.49556304  0.89912800  0.97700145    -0.11600
C713        C  0.46696678  0.87492303  0.97621474     0.01700
C714        C  0.44367003  0.87863763  0.97388999    -0.23800
H715        H  0.53588392  0.03297767  0.98205214     0.09700
H716        H  0.53104804  0.98770086  0.98729504     0.13200
H717        H  0.44283191  0.99147981  0.97619196     0.12000
H718        H  0.41202495  0.94079259  0.47879928     0.13200
H719        H  0.40365962  0.89201389  0.47533828     0.12200
H720        H  0.52377397  0.94488060  0.97878534     0.09300
H721        H  0.51385854  0.89662856  0.97914348     0.12500
H722        H  0.42175397  0.86037603  0.47542553     0.14400
C723        C  0.51691599  0.10936249  0.94699320    -0.01100
C724        C  0.50113693  0.12010608  0.93518961    -0.09100
C725        C  0.51543935  0.14621334  0.92329621    -0.18000
C726        C  0.54592004  0.16152084  0.92145092     0.04400
C727        C  0.56202637  0.15177889  0.93664070     0.18600
C728        C  0.54746752  0.12625987  0.95009742    -0.19400
C729        C  0.59214509  0.16588634  0.93523489    -0.20700
C730        C  0.60622737  0.18780715  0.91616419    -0.19200
C731        C  0.59053671  0.19626930  0.89844037     0.20000
C732        C  0.56049931  0.18432807  0.90227306     0.02100
C733        C  0.54596749  0.19432336  0.88458384    -0.13900
C734        C  0.56000286  0.21336890  0.86151992    -0.11600
C735        C  0.58894724  0.22322578  0.85558005     0.01700
C736        C  0.60439966  0.21551433  0.87535092    -0.23800
H737        H  0.47743346  0.10725666  0.93307073     0.09700
H738        H  0.50174897  0.15260821  0.91341881     0.13200
H739        H  0.55958394  0.11768602  0.95900255     0.12000
H740        H  0.60456989  0.15879085  0.94717814     0.13200
H741        H  0.62927654  0.19728906  0.91391490     0.12200
H742        H  0.52353779  0.18721309  0.88713884     0.09300
H743        H  0.54775692  0.21959977  0.84733134     0.12500
H744        H  0.62707512  0.22372514  0.87183302     0.14400
C745        C  0.59099781  0.20350331  0.68447220    -0.01100
C746        C  0.60547608  0.18992669  0.66732869    -0.09100
C747        C  0.59226259  0.16627961  0.63410461    -0.18000
C748        C  0.56392835  0.15533096  0.61677041     0.04400
C749        C  0.54940515  0.16922316  0.63429835     0.18600
C750        C  0.56288902  0.19285276  0.66760700    -0.19400
C751        C  0.52146717  0.15961613  0.61843734    -0.20700
C752        C  0.50692012  0.13565044  0.08638257    -0.19200
C753        C  0.52120538  0.12245536  0.56724446     0.20000
C754        C  0.54951885  0.13140576  0.58260114     0.02100
C755        C  0.56217343  0.11631616  0.56259810    -0.13900
C756        C  0.54768660  0.09412205  0.52822936    -0.11600
C757        C  0.51993736  0.08608939  0.01318127     0.01700
C758        C  0.50644966  0.09948479  0.03373199    -0.23800
H759        H  0.62720145  0.19762898  0.67959331     0.09700
H760        H  0.60477593  0.15706102  0.62260460     0.13200
H761        H  0.55133189  0.20303213  0.68039152     0.12000
H762        H  0.51031610  0.17013865  0.63163113     0.14500
H763        H  0.48511639  0.12851148  0.07513288     0.12200
H764        H  0.58353943  0.12174761  0.57228542     0.09300
H765        H  0.55863725  0.08429272  0.51255058     0.12500
H766        H  0.48501789  0.09309716  0.02204420     0.14400
C767        C  0.91447814  0.42913654  0.03107843    -0.01100
C768        C  0.93847153  0.45877758  0.03693489    -0.09100
C769        C  0.96207169  0.46551232  0.01652285    -0.18000
C770        C  0.96269011  0.44245410  0.99026373     0.04400
C771        C  0.93738201  0.41264887  0.48274266     0.18600
C772        C  0.91345575  0.40637542  0.50263527    -0.19400
C773        C  0.93669073  0.38893985  0.45704372    -0.20700
C774        C  0.96052843  0.39407831  0.43828581    -0.19200
C775        C  0.98567711  0.42305438  0.44475169     0.20000
C776        C  0.98744274  0.44766996  0.97123614     0.02100
C777        C  0.01379054  0.47636456  0.97683069    -0.13900
C778        C  0.03639323  0.48052454  0.95515960    -0.11600
C779        C  0.03346232  0.45625312  0.92771988     0.01700
C780        C  0.00864869  0.42759115  0.42378499    -0.23800
H781        H  0.93969743  0.47659457  0.05899337     0.09700
H782        H  0.97997697  0.48872888  0.02300718     0.13200
H783        H  0.89522089  0.38332741  0.49863819     0.12000
H784        H  0.91761365  0.36618849  0.45155841     0.13200
H785        H  0.95919595  0.37522598  0.41832595     0.12200
H786        H  0.01712339  0.49613721  0.99672918     0.09300
H787        H  0.05524240  0.50304469  0.95805053     0.12500
H788        H  0.00641256  0.40876269  0.40254978     0.14400
C789        C  0.72526627  0.33397335  0.88217191    -0.01100
C790        C  0.74446644  0.36508383  0.89754894    -0.09100
C791        C  0.76875767  0.37693955  0.92428963    -0.18000
C792        C  0.77470536  0.35801746  0.93705442     0.04400
C793        C  0.75473096  0.32646331  0.92237992     0.18600
C794        C  0.73057446  0.31480059  0.89496495    -0.19400
C795        C  0.75888871  0.30672724  0.93535458    -0.20700
C796        C  0.78196553  0.31762050  0.96335066    -0.19200
C797        C  0.80203759  0.34854100  0.97830817     0.20000
C798        C  0.79929962  0.36921642  0.96449447     0.02100
C799        C  0.82126808  0.40016086  0.97891673    -0.13900
C800        C  0.84391723  0.41012790  0.00736377    -0.11600
C801        C  0.84527960  0.38974934  0.02259239     0.01700
C802        C  0.82460138  0.35895427  0.00746269    -0.23800
H803        H  0.74103692  0.38053871  0.88840870     0.09700
H804        H  0.78230992  0.40105696  0.93478194     0.13200
H805        H  0.71589406  0.29070011  0.88357018     0.12000
H806        H  0.74382517  0.28265649  0.92431290     0.13200
H807        H  0.78411776  0.30172163  0.97340435     0.12200
H808        H  0.82147540  0.41720129  0.96887705     0.09300
H809        H  0.85984397  0.43398884  0.01864879     0.12500
H810        H  0.82592944  0.34315487  0.01892009     0.14400
C811        C  0.83001196  0.37575250  0.59901651    -0.01100
C812        C  0.81119788  0.38579965  0.60100429    -0.09100
C813        C  0.78696639  0.37381914  0.62027093    -0.18000
C814        C  0.78104888  0.35140638  0.63824141     0.04400
C815        C  0.79856496  0.33919647  0.63261546     0.18600
C816        C  0.82304660  0.35170409  0.61351141    -0.19400
C817        C  0.79240778  0.31564343  0.64771512    -0.20700
C818        C  0.77005670  0.30491613  0.66995235    -0.19200
C819        C  0.75398952  0.31815469  0.67861095     0.20000
C820        C  0.75919366  0.34151507  0.66270743     0.02100
C821        C  0.74348023  0.35516657  0.67364549    -0.13900
C822        C  0.72394046  0.34646934  0.69979357    -0.11600
C823        C  0.71891189  0.32359398  0.71565370     0.01700
C824        C  0.73355250  0.30901115  0.70424849    -0.23800
H825        H  0.81632438  0.40432769  0.58974902     0.09700
H826        H  0.77376980  0.38309293  0.62142405     0.13200
H827        H  0.83761185  0.34383732  0.11186906     0.12000
H828        H  0.80534713  0.30588654  0.14326291     0.13200
H829        H  0.76613306  0.28698264  0.68171308     0.12200
H830        H  0.74650700  0.37335382  0.66352572     0.09300
H831        H  0.71277857  0.35797360  0.70779018     0.12500
H832        H  0.72994029  0.29137495  0.71644340     0.14400
loop_ 
_geom_bond_atom_site_label_1 
_geom_bond_atom_site_label_2 
_geom_bond_distance 
_geom_bond_site_symmetry_2 
_ccdc_geom_bond_type 
N1            C2   1.359       .  A
N1          C421   1.356       .  A
N1          C385   1.442       .  S
C2          C351   1.475       .  S
C2          C419   1.383       .  A
C3            C4   1.372       .  A
C3          C418   1.383       .  A
C3            H6   1.082       .  S
C4            C5   1.379       .  A
C4            H7   1.082       .  S
C5          N417   1.357       .  A
C5          C395   1.472       .  S
N8           C12   1.354       .  A
N8            C9   1.357       .  A
N8          C341   1.440       .  S
C9          C285   1.471       .  S
C9           C10   1.384       .  A
C10          C11   1.369       .  A
C10          H13   1.083       .  S
C11          C12   1.379       .  A
C11          H14   1.082       .  S
C12         C307   1.468       .  S
N15          C16   1.360       .  A
N15         C435   1.356       .  A
N15         C263   1.444       .  S
C16         C219   1.479       .  S
C16         C433   1.384       .  A
C17          C18   1.372       .  A
C17         C432   1.384       .  A
C17          H20   1.082       .  S
C18          C19   1.380       .  A
C18          H21   1.082       .  S
C19         N431   1.357       .  A
C19         C241   1.472       .  S
Fe22         O38   2.073       .  S
Fe22         O28   2.081       .  S
Fe22         O35   2.074       .  S
Fe22         O27   2.072       .  S
Fe22         O33   1.976       .  S
Fe23         O26   2.062       .  S
Fe23         O30   2.063       .  S
Fe23         O34   2.058       .  S
Fe23         O39   2.072       .  S
Fe23         O33   1.972       .  S
Fe24         O42   2.063       .  S
Fe24         O29   2.075       .  S
Fe24         O36   2.059       .  S
Fe24         O25   2.064       .  S
Fe24         O33   1.965       .  S
O25          C32   1.267       .  A
O26          C40   1.269       .  A
O27          C32   1.267       .  A
O28          C31   1.275       .  A
O29          C41   1.271       .  A
O30          C43   1.266       .  A
C31         C407   1.483       .  S
C31          O36   1.273       .  A
C32         C373   1.491       .  S
O34          C37   1.272       .  A
O35          C37   1.276       .  A
C37         C319   1.478       .  S
O38          C43   1.267       .  A
O39          C41   1.270       .  A
C40         C253   1.480       .  S
C40          O42   1.269       .  A
C41         C275   1.490       .  S
C43         C329   1.491       .  S
N44          C48   1.357       .  A
N44          C45   1.359       .  A
N44         C591   1.440       .  S
C45         C363   1.479       .  S
C45          C46   1.385       .  A
C46          C47   1.370       .  A
C46          H49   1.082       .  S
C47          C48   1.379       .  A
C47          H50   1.082       .  S
C48         C197   1.471       .  S
N51          C52   1.359       .  A
N51         C471   1.355       .  A
N51         C131   1.443       .  S
C52         C297   1.472       .  S
C52         C469   1.383       .  A
C53          C54   1.368       .  A
C53         C468   1.384   1_554  A
C53          H56   1.082       .  S
C54          C55   1.378       .  A
C54          H57   1.082       .  S
C55         N467   1.356   1_554  A
C55         C153   1.468       .  S
N58          C62   1.359       .  A
N58          C59   1.362       .  A
N58         C525   1.447       .  S
C59         C231   1.478       .  S
C59          C60   1.384       .  A
C60          C61   1.369       .  A
C60          H63   1.082       .  S
C61          C62   1.380       .  A
C61          H64   1.082       .  S
C62          C87   1.473       .  S
Fe65         O81   2.070       .  S
Fe65         O71   2.067       .  S
Fe65         O78   2.083       .  S
Fe65         O70   2.075       .  S
Fe65         O76   1.971       .  S
Fe66         O69   2.073       .  S
Fe66         O73   2.065       .  S
Fe66         O77   2.077       .  S
Fe66         O82   2.059       .  S
Fe66         O76   1.969       .  S
Fe67         O85   2.065       .  S
Fe67         O72   2.073       .  S
Fe67         O79   2.068       .  S
Fe67         O68   2.064       .  S
Fe67         O76   1.970       .  S
O68          C75   1.267       .  A
O69          C83   1.267       .  A
O70          C75   1.269       .  A
O71          C74   1.272       .  A
O72          C84   1.276       .  A
O73          C86   1.272       .  A
C74         C209   1.483       .  S
C74          O79   1.272       .  A
C75         C187   1.488       .  S
O77          C80   1.269       .  A
O78          C80   1.271       .  A
C80         C121   1.497       .  S
O81          C86   1.273       .  A
O82          C84   1.274       .  A
C83         C143   1.488       .  S
C83          O85   1.264       .  A
C84         C165   1.479       .  S
C86          C99   1.481       .  S
C87          C88   1.397       .  A
C87          C92   1.397       .  A
C88          C89   1.397       .  A
C88         H101   1.083       .  S
C89          C90   1.416       .  A
C89         H102   1.078       .  S
C90          C96   1.429       .  A
C90          C91   1.423       .  A
C91          C93   1.398       .  A
C91          C92   1.401       .  A
C92         H103   1.085       .  S
C93          C94   1.388       .  A
C93         H104   1.084       .  S
C94          C95   1.399       .  A
C94         H105   1.084       .  S
C95          C96   1.421       .  A
C95         C100   1.400       .  A
C96          C97   1.416       .  A
C97          C98   1.399       .  A
C97         H106   1.078       .  S
C98          C99   1.401       .  A
C98         H107   1.083       .  S
C99         C100   1.402       .  A
C100        H108   1.084       .  S
C109        N474   1.448       .  S
C109        C110   1.399       .  A
C109        C114   1.404       .  A
C110        C111   1.403       .  A
C110        H123   1.083       .  S
C111        C112   1.419       .  A
C111        H124   1.078   1_556  S
C112        C118   1.437   1_556  A
C112        C113   1.422       .  A
C113        C115   1.401       .  A
C113        C114   1.408       .  A
C114        H541   1.084       .  S
C115        C116   1.392       .  A
C115        H126   1.084       .  S
C116        C117   1.400   1_556  A
C116        H127   1.084       .  S
C117        C118   1.425       .  A
C117        C122   1.413       .  A
C118        C119   1.413       .  A
C119        C120   1.400       .  A
C119        H128   1.078       .  S
C120        C121   1.405       .  A
C120        H129   1.083       .  S
C121        C122   1.405       .  A
C122        H130   1.084       .  S
H125        C530   1.084       .  S
C131        C132   1.399       .  A
C131        C136   1.402       .  A
C132        C133   1.398       .  A
C132        H145   1.083       .  S
C133        C134   1.415       .  A
C133        H146   1.077       .  S
C134        C140   1.433       .  A
C134        C135   1.422       .  A
C135        C137   1.400       .  A
C135        C136   1.408       .  A
C136        H147   1.081       .  S
C137        C138   1.393       .  A
C137        H148   1.084       .  S
C138        C139   1.401       .  A
C138        H149   1.084       .  S
C139        C140   1.423       .  A
C139        C144   1.410       .  A
C140        C141   1.415       .  A
C141        C142   1.398       .  A
C141        H150   1.077       .  S
C142        C143   1.402       .  A
C142        H151   1.083       .  S
C143        C144   1.405       .  A
C144        H152   1.084       .  S
C153        C154   1.396       .  A
C153        C158   1.396       .  A
C154        C155   1.394       .  A
C154        H167   1.083       .  S
C155        C156   1.415       .  A
C155        H168   1.076       .  S
C156        C162   1.426       .  A
C156        C157   1.423       .  A
C157        C159   1.398       .  A
C157        C158   1.401       .  A
C158        H585   1.085   1_554  S
C159        C160   1.388       .  A
C159        H170   1.084       .  S
C160        C161   1.399       .  A
C160        H171   1.084       .  S
C161        C162   1.422       .  A
C161        C166   1.402       .  A
C162        C163   1.414       .  A
C163        C164   1.394       .  A
C163        H172   1.076       .  S
C164        C165   1.401       .  A
C164        H173   1.083       .  S
C165        C166   1.402       .  A
C166        H174   1.084       .  S
H169        C574   1.085       .  S
C175        N460   1.440       .  S
C175        C176   1.397       .  A
C175        C596   1.400       .  A
C176        C177   1.399       .  A
C176        H189   1.082       .  S
C177        C178   1.417       .  A
C177        H190   1.076       .  S
C178        C184   1.434   1_556  A
C178        C179   1.423       .  A
C179        C181   1.400       .  A
C179        C596   1.408       .  A
C180        C591   1.399       .  A
C180        C595   1.408       .  A
C180        H191   1.084       .  S
C181        C182   1.391   1_556  A
C181        H608   1.084       .  S
C182        C183   1.400       .  A
C182        H193   1.084       .  S
C183        C184   1.423       .  A
C183        C188   1.409       .  A
C184        C185   1.415       .  A
C185        C186   1.398       .  A
C185        H194   1.076       .  S
C186        C187   1.402       .  A
C186        H195   1.084       .  S
C187        C188   1.404       .  A
C188        H196   1.084       .  S
H192        C597   1.084       .  S
C197        C198   1.397       .  A
C197        C202   1.397       .  A
C198        C199   1.398       .  A
C198        H211   1.083       .  S
C199        C200   1.416       .  A
C199        H212   1.078       .  S
C200        C206   1.429       .  A
C200        C201   1.423       .  A
C201        C203   1.398       .  A
C201        C202   1.402       .  A
C202        H213   1.085       .  S
C203        C204   1.388       .  A
C203        H214   1.084       .  S
C204        C205   1.399       .  A
C204        H215   1.084       .  S
C205        C206   1.422       .  A
C205        C210   1.403       .  A
C206        C207   1.414       .  A
C207        C208   1.397       .  A
C207        H216   1.078       .  S
C208        C209   1.402       .  A
C208        H217   1.083       .  S
C209        C210   1.402       .  A
C210        H218   1.084       .  S
C219        C220   1.397       .  A
C219        C224   1.402       .  A
C220        C221   1.399       .  A
C220        H649   1.083       .  S
C221        C222   1.418       .  A
C221        H650   1.077       .  S
C222        C228   1.430       .  A
C222        C223   1.420       .  A
C223        C225   1.400       .  A
C223        C224   1.403       .  A
C224        H235   1.085       .  S
C225        C226   1.391       .  A
C225        H236   1.084       .  S
C226        C227   1.399       .  A
C226        H237   1.084       .  S
C227        C228   1.425       .  A
C227        C232   1.409       .  A
C228        C229   1.412       .  A
C229        C230   1.394       .  A
C229        H238   1.077       .  S
C230        C231   1.400       .  A
C230        H239   1.084       .  S
C231        C232   1.398       .  A
C232        H240   1.084       .  S
H233        C636   1.083       .  S
H234        C637   1.077       .  S
C241        C242   1.396       .  A
C241        C246   1.398       .  A
C242        C243   1.394       .  A
C242        H255   1.083       .  S
C243        C244   1.415       .  A
C243        H256   1.078       .  S
C244        C250   1.426       .  A
C244        C245   1.423       .  A
C245        C247   1.400       .  A
C245        C246   1.404       .  A
C246        H673   1.085       .  S
C247        C248   1.391       .  A
C247        H674   1.084       .  S
C248        C249   1.399       .  A
C248        H259   1.084       .  S
C249        C250   1.422       .  A
C249        C254   1.405       .  A
C250        C251   1.412       .  A
C251        C252   1.392       .  A
C251        H260   1.078       .  S
C252        C253   1.402       .  A
C252        H261   1.083       .  S
C253        C254   1.403       .  A
C254        H262   1.084       .  S
H257        C662   1.085       .  S
H258        C663   1.084       .  S
C263        C264   1.398       .  A
C263        C268   1.401       .  A
C264        C265   1.400       .  A
C264        H277   1.083       .  S
C265        C266   1.418       .  A
C265        H278   1.077       .  S
C266        C272   1.433       .  A
C266        C267   1.422       .  A
C267        C269   1.400       .  A
C267        C268   1.405       .  A
C268        H279   1.084       .  S
C269        C270   1.391       .  A
C269        H280   1.084       .  S
C270        C271   1.399       .  A
C270        H281   1.084       .  S
C271        C272   1.424       .  A
C271        C276   1.409       .  A
C272        C273   1.413       .  A
C273        C274   1.397       .  A
C273        H282   1.077       .  S
C274        C275   1.405       .  A
C274        H283   1.083       .  S
C275        C276   1.403       .  A
C276        H284   1.084       .  S
C285        C286   1.398       .  A
C285        C290   1.398   1_545  A
C286        C287   1.400   1_545  A
C286        H299   1.082       .  S
C287        C288   1.418       .  A
C287        H300   1.078       .  S
C288        C294   1.430       .  A
C288        C289   1.421       .  A
C289        C291   1.399       .  A
C289        C290   1.400       .  A
C290        H301   1.085       .  S
C291        C708   1.388       .  A
C291        H718   1.084       .  S
C292        C707   1.388       .  A
C292        C709   1.398       .  A
C292        H303   1.084       .  S
C293        C294   1.425       .  A
C293        C298   1.404       .  A
C293        C708   1.398       .  A
C294        C295   1.414       .  A
C295        C296   1.395       .  A
C295        H304   1.078       .  S
C296        C297   1.399       .  A
C296        H305   1.084       .  S
C297        C298   1.397       .  A
C298        H722   1.085       .  S
H302        C707   1.084       .  S
H306        C714   1.085       .  S
C307        C308   1.396       .  A
C307        C312   1.396       .  A
C308        C309   1.393       .  A
C308        H321   1.084       .  S
C309        C310   1.415       .  A
C309        H322   1.077       .  S
C310        C316   1.426       .  A
C310        C311   1.423       .  A
C311        C313   1.398       .  A
C311        C312   1.401       .  A
C312        H323   1.085       .  S
C313        C314   1.388       .  A
C313        H324   1.084       .  S
C314        C315   1.399       .  A
C314        H325   1.084       .  S
C315        C316   1.422       .  A
C315        C320   1.401       .  A
C316        C317   1.414       .  A
C317        C318   1.395       .  A
C317        H326   1.077       .  S
C318        C319   1.402       .  A
C318        H327   1.083       .  S
C319        C320   1.401       .  A
C320        H328   1.084       .  S
C329        C330   1.404       .  A
C329        C334   1.403       .  A
C330        C331   1.403       .  A
C330        H343   1.083       .  S
C331        C332   1.416       .  A
C331        H344   1.078       .  S
C332        C338   1.436       .  A
C332        C333   1.423       .  A
C333        C335   1.399       .  A
C333        C334   1.405       .  A
C334        H345   1.084       .  S
C335        C752   1.388       .  A
C335        H346   1.084       .  S
C336        C751   1.387       .  A
C336        C753   1.398       .  A
C336        H347   1.084       .  S
C337        C338   1.422       .  A
C337        C752   1.398       .  A
C337        C758   1.402       .  A
C338        C339   1.419       .  A
C339        C340   1.404       .  A
C339        H348   1.078       .  S
C340        C757   1.398       .  A
C340        H349   1.082       .  S
C341        C342   1.398       .  A
C341        C756   1.398       .  A
C342        C753   1.402       .  A
C342        H350   1.085       .  S
C351        C352   1.401       .  A
C351        C772   1.396       .  A
C352        C353   1.398       .  A
C352        H365   1.084       .  S
C353        C354   1.414       .  A
C353        H366   1.077       .  S
C354        C360   1.433       .  A
C354        C771   1.425       .  A
C355        C357   1.397       .  A
C355        C356   1.405   1_556  A
C355        C770   1.425       .  A
C356        C767   1.396       .  A
C356        H367   1.085   1_554  S
C357        C358   1.387       .  A
C357        H368   1.084       .  S
C358        C359   1.399       .  A
C358        H369   1.084       .  S
C359        C364   1.400   1_655  A
C359        C776   1.421       .  A
C360        C361   1.419   1_655  A
C360        C775   1.421       .  A
C361        C362   1.403       .  A
C361        H370   1.078       .  S
C362        C363   1.399       .  A
C362        H371   1.083       .  S
C363        C780   1.400       .  A
C364        C779   1.400       .  A
C364        H372   1.085       .  S
C373        C374   1.404       .  A
C373        C378   1.405       .  A
C374        C375   1.398       .  A
C374        H387   1.083       .  S
C375        C376   1.413       .  A
C375        H388   1.078       .  S
C376        C382   1.433       .  A
C376        C377   1.423       .  A
C377        C379   1.400       .  A
C377        C378   1.410       .  A
C378        H389   1.084       .  S
C379        C380   1.392       .  A
C379        H390   1.084       .  S
C380        C381   1.400       .  A
C380        H391   1.084       .  S
C381        C382   1.422       .  A
C381        C386   1.408       .  A
C382        C383   1.417       .  A
C383        C384   1.400       .  A
C383        H392   1.078       .  S
C384        C385   1.398       .  A
C384        H393   1.083       .  S
C385        C386   1.401       .  A
C386        H394   1.084       .  S
C395        C396   1.395       .  A
C395        C400   1.400       .  A
C396        C397   1.396       .  A
C396        H409   1.084       .  S
C397        C398   1.417       .  A
C397        H410   1.077       .  S
C398        C404   1.428       .  A
C398        C399   1.421       .  A
C399        C401   1.401       .  A
C399        C400   1.405       .  A
C400        H827   1.084       .  S
C401        C402   1.392       .  A
C401        H828   1.084       .  S
C402        C403   1.401       .  A
C402        H413   1.084       .  S
C403        C404   1.423       .  A
C403        C408   1.409       .  A
C404        C405   1.412       .  A
C405        C406   1.392       .  A
C405        H414   1.076       .  S
C406        C407   1.401       .  A
C406        H415   1.084       .  S
C407        C408   1.404       .  A
C408        H416   1.084       .  S
H411        C816   1.084       .  S
H412        C817   1.084       .  S
N417        C418   1.360       .  A
N417        C801   1.443       .  S
C418        C767   1.476       .  S
C419        C420   1.372       .  A
C419        H422   1.082       .  S
C420        C421   1.379       .  A
C420        H423   1.082       .  S
C421        C811   1.472       .  S
N424        C428   1.355       .  A
N424        C425   1.357       .  A
N424        C757   1.440   1_556  S
C425        C701   1.472       .  S
C425        C426   1.384       .  A
C426        C427   1.368       .  A
C426        H429   1.083       .  S
C427        C428   1.379       .  A
C427        H430   1.082       .  S
C428        C723   1.468       .  S
N431        C432   1.360       .  A
N431        C679   1.443       .  S
C432        C635   1.480       .  S
C433        C434   1.372       .  A
C433        H436   1.082       .  S
C434        C435   1.380       .  A
C434        H437   1.082       .  S
C435        C657   1.471       .  S
Fe438       O454   2.072       .  S
Fe438       O444   2.081       .  S
Fe438       O451   2.075       .  S
Fe438       O443   2.072       .  S
Fe438       O449   1.976       .  S
Fe439       O442   2.061       .  S
Fe439       O446   2.062       .  S
Fe439       O450   2.058       .  S
Fe439       O455   2.071       .  S
Fe439       O449   1.972       .  S
Fe440       O458   2.063       .  S
Fe440       O445   2.074       .  S
Fe440       O452   2.058       .  S
Fe440       O441   2.065       .  S
Fe440       O449   1.966       .  S
O441        C448   1.267       .  A
O442        C456   1.269       .  A
O443        C448   1.267       .  A
O444        C447   1.275       .  A
O445        C457   1.271       .  A
O446        C459   1.266       .  A
C447        C823   1.482       .  S
C447        O452   1.273       .  A
C448        C789   1.491       .  S
O450        C453   1.272       .  A
O451        C453   1.276       .  A
C453        C735   1.478       .  S
O454        C459   1.267       .  A
O455        C457   1.270       .  A
C456        C669   1.480       .  S
C456        O458   1.269       .  A
C457        C691   1.490       .  S
C459        C745   1.491       .  S
N460        C464   1.357       .  A
N460        C461   1.359       .  A
C461        C779   1.479       .  S
C461        C462   1.385       .  A
C462        C463   1.370       .  A
C462        H465   1.082       .  S
C463        C464   1.379       .  A
C463        H466   1.082       .  S
C464        C613   1.471       .  S
N467        C468   1.359       .  A
N467        C547   1.443       .  S
C468        C713   1.473       .  S
C469        C470   1.368       .  A
C469        H472   1.082       .  S
C470        C471   1.379       .  A
C470        H473   1.082       .  S
C471        C569   1.467       .  S
N474        C478   1.359       .  A
N474        C475   1.362       .  A
C475        C647   1.478       .  S
C475        C476   1.384       .  A
C476        C477   1.369       .  A
C476        H479   1.082       .  S
C477        C478   1.380       .  A
C477        H480   1.082       .  S
C478        C503   1.473       .  S
Fe481       O497   2.069       .  S
Fe481       O487   2.067       .  S
Fe481       O494   2.083       .  S
Fe481       O486   2.075       .  S
Fe481       O492   1.972       .  S
Fe482       O485   2.072       .  S
Fe482       O489   2.066       .  S
Fe482       O493   2.076       .  S
Fe482       O498   2.059       .  S
Fe482       O492   1.969       .  S
Fe483       O501   2.065       .  S
Fe483       O488   2.072       .  S
Fe483       O495   2.068       .  S
Fe483       O484   2.064       .  S
Fe483       O492   1.971       .  S
O484        C491   1.267       .  A
O485        C499   1.266       .  A
O486        C491   1.269       .  A
O487        C490   1.272       .  A
O488        C500   1.276       .  A
O489        C502   1.272       .  A
C490        C625   1.483       .  S
C490        O495   1.272       .  A
C491        C603   1.488       .  S
O493        C496   1.269       .  A
O494        C496   1.271       .  A
C496        C537   1.496       .  S
O497        C502   1.272       .  A
O498        C500   1.274       .  A
C499        C559   1.488       .  S
C499        O501   1.264       .  A
C500        C581   1.479       .  S
C502        C515   1.481       .  S
C503        C504   1.397       .  A
C503        C508   1.397       .  A
C504        C505   1.397       .  A
C504        H517   1.083       .  S
C505        C506   1.416       .  A
C505        H518   1.078       .  S
C506        C512   1.429       .  A
C506        C507   1.423       .  A
C507        C509   1.398       .  A
C507        C508   1.402       .  A
C508        H519   1.085       .  S
C509        C510   1.388       .  A
C509        H520   1.084       .  S
C510        C511   1.399       .  A
C510        H521   1.084       .  S
C511        C512   1.421       .  A
C511        C516   1.401       .  A
C512        C513   1.416       .  A
C513        C514   1.398       .  A
C513        H522   1.078       .  S
C514        C515   1.401       .  A
C514        H523   1.083       .  S
C515        C516   1.402       .  A
C516        H524   1.084       .  S
C525        C526   1.399       .  A
C525        C530   1.404       .  A
C526        C527   1.403       .  A
C526        H539   1.083       .  S
C527        C528   1.419       .  A
C527        H540   1.078       .  S
C528        C534   1.437       .  A
C528        C529   1.421       .  A
C529        C531   1.401       .  A
C529        C530   1.408       .  A
C531        C532   1.392       .  A
C531        H542   1.084       .  S
C532        C533   1.400       .  A
C532        H543   1.084       .  S
C533        C534   1.425       .  A
C533        C538   1.413       .  A
C534        C535   1.413       .  A
C535        C536   1.399       .  A
C535        H544   1.078       .  S
C536        C537   1.405       .  A
C536        H545   1.083       .  S
C537        C538   1.405       .  A
C538        H546   1.084       .  S
C547        C548   1.399       .  A
C547        C552   1.402       .  A
C548        C549   1.398       .  A
C548        H561   1.083       .  S
C549        C550   1.415       .  A
C549        H562   1.077       .  S
C550        C556   1.433       .  A
C550        C551   1.422       .  A
C551        C553   1.400       .  A
C551        C552   1.408       .  A
C552        H563   1.081       .  S
C553        C554   1.392       .  A
C553        H564   1.084       .  S
C554        C555   1.401       .  A
C554        H565   1.084       .  S
C555        C556   1.423       .  A
C555        C560   1.409       .  A
C556        C557   1.415       .  A
C557        C558   1.398       .  A
C557        H566   1.077       .  S
C558        C559   1.402       .  A
C558        H567   1.083       .  S
C559        C560   1.404       .  A
C560        H568   1.084       .  S
C569        C570   1.396       .  A
C569        C574   1.396       .  A
C570        C571   1.393       .  A
C570        H583   1.083       .  S
C571        C572   1.415       .  A
C571        H584   1.076       .  S
C572        C578   1.426       .  A
C572        C573   1.423       .  A
C573        C575   1.398       .  A
C573        C574   1.401       .  A
C575        C576   1.388       .  A
C575        H586   1.084       .  S
C576        C577   1.399       .  A
C576        H587   1.084       .  S
C577        C578   1.422       .  A
C577        C582   1.402       .  A
C578        C579   1.414       .  A
C579        C580   1.394       .  A
C579        H588   1.076       .  S
C580        C581   1.401       .  A
C580        H589   1.083       .  S
C581        C582   1.402       .  A
C582        H590   1.084       .  S
C591        C592   1.397       .  A
C592        C593   1.399       .  A
C592        H605   1.082       .  S
C593        C594   1.417       .  A
C593        H606   1.076       .  S
C594        C600   1.434       .  A
C594        C595   1.423       .  A
C595        C597   1.400       .  A
C596        H607   1.084       .  S
C597        C598   1.391       .  A
C598        C599   1.400       .  A
C598        H609   1.084       .  S
C599        C600   1.423       .  A
C599        C604   1.409       .  A
C600        C601   1.415       .  A
C601        C602   1.399       .  A
C601        H610   1.076       .  S
C602        C603   1.402       .  A
C602        H611   1.084       .  S
C603        C604   1.404       .  A
C604        H612   1.084       .  S
C613        C614   1.397       .  A
C613        C618   1.397       .  A
C614        C615   1.398       .  A
C614        H627   1.083       .  S
C615        C616   1.416       .  A
C615        H628   1.077       .  S
C616        C622   1.429       .  A
C616        C617   1.423       .  A
C617        C619   1.398       .  A
C617        C618   1.402       .  A
C618        H629   1.085       .  S
C619        C620   1.388       .  A
C619        H630   1.084       .  S
C620        C621   1.399       .  A
C620        H631   1.084       .  S
C621        C622   1.422       .  A
C621        C626   1.403       .  A
C622        C623   1.415       .  A
C623        C624   1.397       .  A
C623        H632   1.077       .  S
C624        C625   1.402       .  A
C624        H633   1.083       .  S
C625        C626   1.402       .  A
C626        H634   1.084       .  S
C635        C636   1.397       .  A
C635        C640   1.402       .  A
C636        C637   1.400   1_554  A
C637        C638   1.418       .  A
C638        C644   1.430       .  A
C638        C639   1.420   1_556  A
C639        C641   1.400       .  A
C639        C640   1.403       .  A
C640        H651   1.085       .  S
C641        C642   1.391   1_554  A
C641        H652   1.084       .  S
C642        C643   1.399       .  A
C642        H653   1.084       .  S
C643        C644   1.425       .  A
C643        C648   1.409       .  A
C644        C645   1.412       .  A
C645        C646   1.394       .  A
C645        H654   1.077       .  S
C646        C647   1.401       .  A
C646        H655   1.084       .  S
C647        C648   1.398       .  A
C648        H656   1.084       .  S
C657        C658   1.396       .  A
C657        C662   1.397       .  A
C658        C659   1.394       .  A
C658        H671   1.083       .  S
C659        C660   1.415       .  A
C659        H672   1.078       .  S
C660        C666   1.426       .  A
C660        C661   1.423       .  A
C661        C663   1.399       .  A
C661        C662   1.404       .  A
C663        C664   1.390       .  A
C664        C665   1.399       .  A
C664        H675   1.084       .  S
C665        C666   1.422       .  A
C665        C670   1.405       .  A
C666        C667   1.412       .  A
C667        C668   1.392       .  A
C667        H676   1.078       .  S
C668        C669   1.402       .  A
C668        H677   1.083       .  S
C669        C670   1.403       .  A
C670        H678   1.084       .  S
C679        C680   1.398   1_554  A
C679        C684   1.401       .  A
C680        C681   1.400       .  A
C680        H693   1.083       .  S
C681        C682   1.418       .  A
C681        H694   1.077       .  S
C682        C688   1.433       .  A
C682        C683   1.422       .  A
C683        C685   1.400       .  A
C683        C684   1.405   1_556  A
C684        H695   1.084       .  S
C685        C686   1.391       .  A
C685        H696   1.084   1_556  S
C686        C687   1.399       .  A
C686        H697   1.084       .  S
C687        C688   1.424       .  A
C687        C692   1.409       .  A
C688        C689   1.413       .  A
C689        C690   1.397       .  A
C689        H698   1.077       .  S
C690        C691   1.404       .  A
C690        H699   1.083       .  S
C691        C692   1.403       .  A
C692        H700   1.084       .  S
C701        C702   1.398       .  A
C701        C706   1.399   1_545  A
C702        C703   1.400   1_545  A
C702        H715   1.082       .  S
C703        C704   1.418       .  A
C703        H716   1.078       .  S
C704        C710   1.430       .  A
C704        C705   1.421       .  A
C705        C707   1.399       .  A
C705        C706   1.400       .  A
C706        H717   1.085       .  S
C708        H719   1.084       .  S
C709        C710   1.425       .  A
C709        C714   1.404       .  A
C710        C711   1.414       .  A
C711        C712   1.396       .  A
C711        H720   1.078       .  S
C712        C713   1.400       .  A
C712        H721   1.084       .  S
C713        C714   1.397       .  A
C723        C724   1.396       .  A
C723        C728   1.396       .  A
C724        C725   1.394       .  A
C724        H737   1.084       .  S
C725        C726   1.415       .  A
C725        H738   1.077       .  S
C726        C732   1.426       .  A
C726        C727   1.423       .  A
C727        C729   1.398       .  A
C727        C728   1.401       .  A
C728        H739   1.085       .  S
C729        C730   1.388       .  A
C729        H740   1.084       .  S
C730        C731   1.399       .  A
C730        H741   1.084       .  S
C731        C732   1.422       .  A
C731        C736   1.401       .  A
C732        C733   1.414       .  A
C733        C734   1.395       .  A
C733        H742   1.077       .  S
C734        C735   1.402       .  A
C734        H743   1.083       .  S
C735        C736   1.401       .  A
C736        H744   1.084       .  S
C745        C746   1.404       .  A
C745        C750   1.403       .  A
C746        C747   1.403       .  A
C746        H759   1.083       .  S
C747        C748   1.416       .  A
C747        H760   1.078       .  S
C748        C754   1.435       .  A
C748        C749   1.423       .  A
C749        C751   1.399       .  A
C749        C750   1.405       .  A
C750        H761   1.084       .  S
C751        H762   1.084       .  S
C752        H763   1.084       .  S
C753        C754   1.422       .  A
C754        C755   1.419       .  A
C755        C756   1.404       .  A
C755        H764   1.078       .  S
C756        H765   1.081       .  S
C757        C758   1.398       .  A
C758        H766   1.085       .  S
C767        C768   1.401       .  A
C768        C769   1.399       .  A
C768        H781   1.084       .  S
C769        C770   1.414   1_554  A
C769        H782   1.078       .  S
C770        C776   1.433       .  A
C771        C773   1.397       .  A
C771        C772   1.404       .  A
C772        H783   1.085       .  S
C773        C774   1.387       .  A
C773        H784   1.084       .  S
C774        C775   1.399       .  A
C774        H785   1.084       .  S
C775        C780   1.400   1_655  A
C776        C777   1.419   1_655  A
C777        C778   1.403       .  A
C777        H786   1.078       .  S
C778        C779   1.399       .  A
C778        H787   1.083       .  S
C780        H788   1.085       .  S
C789        C790   1.404       .  A
C789        C794   1.405       .  A
C790        C791   1.398       .  A
C790        H803   1.083       .  S
C791        C792   1.413       .  A
C791        H804   1.078       .  S
C792        C798   1.433       .  A
C792        C793   1.423       .  A
C793        C795   1.400       .  A
C793        C794   1.410       .  A
C794        H805   1.084       .  S
C795        C796   1.392       .  A
C795        H806   1.084       .  S
C796        C797   1.400       .  A
C796        H807   1.084       .  S
C797        C798   1.422       .  A
C797        C802   1.408   1_556  A
C798        C799   1.417       .  A
C799        C800   1.400   1_556  A
C799        H808   1.078       .  S
C800        C801   1.398       .  A
C800        H809   1.083       .  S
C801        C802   1.401       .  A
C802        H810   1.084       .  S
C811        C812   1.395       .  A
C811        C816   1.400       .  A
C812        C813   1.396       .  A
C812        H825   1.084       .  S
C813        C814   1.417       .  A
C813        H826   1.077       .  S
C814        C820   1.428       .  A
C814        C815   1.421       .  A
C815        C817   1.400       .  A
C815        C816   1.404       .  A
C817        C818   1.392       .  A
C818        C819   1.400       .  A
C818        H829   1.084       .  S
C819        C820   1.423       .  A
C819        C824   1.409       .  A
C820        C821   1.412       .  A
C821        C822   1.392       .  A
C821        H830   1.076       .  S
C822        C823   1.402       .  A
C822        H831   1.084       .  S
C823        C824   1.403       .  A
C824        H832   1.084       .  S
