geometry optimzed in LAMMPS
_audit_creation_date              2020-12-01 
_audit_creation_method            'lammps2cif' 
_symmetry_space_group_name_H-M    'P1' 
_symmetry_Int_Tables_number       1 
_symmetry_cell_setting            triclinic 
loop_ 
_symmetry_equiv_pos_as_xyz 
  x,y,z 
_cell_length_a                    29.41513321 
_cell_length_b                    29.414529157791065 
_cell_length_c                    30.16714799066154 
_cell_angle_alpha                 90.00037482569952 
_cell_angle_beta                  89.99986365088233 
_cell_angle_gamma                 120.00927089397017 
loop_ 
_atom_site_label 
_atom_site_type_symbol 
_atom_site_fract_x 
_atom_site_fract_y 
_atom_site_fract_z 
_atom_site_charge 
Zn1        Zn  0.32559541  0.22512998  0.39307716     1.49700
Zn2        Zn  0.33339896  0.16664691  0.30764091     1.49400
Zn3        Zn  0.39963493  0.17437784  0.39309035     1.49100
Zn4        Zn  0.27483660  0.10033827  0.39307155     1.49500
O5          O  0.33336489  0.16662129  0.37216933    -1.84600
O6          O  0.33057526  0.27209771  0.34234585    -0.75200
O7          O  0.39001652  0.15462897  0.28375839    -0.75000
O8          O  0.44018698  0.24122136  0.42902167    -0.74600
O9          O  0.34542272  0.23528904  0.28375109    -0.75200
O10         O  0.38537541  0.27263887  0.43240924    -0.74800
O11         O  0.44162280  0.16937992  0.34237276    -0.75400
O12         O  0.30111822  0.05974856  0.42896217    -0.74800
O13         O  0.26476968  0.11003300  0.28372769    -0.75600
O14         O  0.38735094  0.11459320  0.43241512    -0.75000
O15         O  0.22785917  0.05840339  0.34232468    -0.75400
O16         O  0.22734481  0.11260495  0.43243724    -0.75300
O17         O  0.25875931  0.19884019  0.42901665    -0.75100
C18         C  0.34158048  0.27239259  0.30149459     0.76700
C19         C  0.43093075  0.15841355  0.30151389     0.77200
C20         C  0.42838138  0.27505859  0.44277138     0.76100
C21         C  0.34675680  0.07155898  0.44273549     0.76500
C22         C  0.22761786  0.06911438  0.30146627     0.77600
C23         C  0.22492667  0.15319403  0.44278748     0.76700
C24         C  0.45427608  0.50112230  0.00307772     0.79700
N25         N  0.45327529  0.45438036  0.00301955    -0.78600
C26         C  0.99881545  0.45303534  0.50310978     0.82200
N27         N  0.04557666  0.99878286  0.50305205    -0.78500
C28         C  0.04692929  0.04567091  0.00310810     0.82300
N29         N  0.00118552  0.04667169  0.00301122    -0.80200
C30         C  0.35282053  0.03505484  0.47185466     0.79700
N31         N  0.31136092  0.99985374  0.99619585    -0.78600
C32         C  0.31663069  0.46667406  0.02398902     0.82200
N33         N  0.36302200  0.46722432  0.02639522    -0.78500
C34         C  0.40477669  0.00216884  0.00191670     0.82300
N35         N  0.39981197  0.03672289  0.47521250    -0.80200
C36         C  0.18237094  0.14713413  0.47192640     0.79700
N37         N  0.13702883  0.10014397  0.47527248    -0.78600
C38         C  0.09749969  0.09518711  0.00196169     0.82200
N39         N  0.10429916  0.13692742  0.02643019    -0.78500
C40         C  0.15015604  0.18331975  0.02403737     0.82300
N41         N  0.18863484  0.18859416  0.99626212    -0.80200
C42         C  0.03324352  0.34983324  0.02405010     0.79700
N43         N  0.03269846  0.39567888  0.02645090    -0.78600
C44         C  0.99776423  0.40247332  0.50196845     0.82200
N45         N  0.46321077  0.36294794  0.47526082    -0.78500
C46         C  0.46487052  0.31762005  0.47190928     0.82300
N47         N  0.00005921  0.31136168  0.49625519    -0.80200
Zn48       Zn  0.16665239  0.33327014  0.05764140     1.49700
Zn49       Zn  0.22521739  0.39957958  0.14307420     1.49400
Zn50       Zn  0.10041850  0.32554538  0.14309059     1.49100
Zn51       Zn  0.17445674  0.27479114  0.14308058     1.49500
O52         O  0.16668729  0.33329847  0.12217014    -1.84600
O53         O  0.23528135  0.38988695  0.03372980    -0.75200
O54         O  0.19893953  0.44016775  0.17897026    -0.75000
O55         O  0.05843395  0.33055188  0.09237452    -0.74600
O56         O  0.27218969  0.44151657  0.09232807    -0.75200
O57         O  0.11003114  0.34528398  0.03375698    -0.74800
O58         O  0.11270640  0.38532735  0.18242044    -0.75400
O59         O  0.11467789  0.22728750  0.18241325    -0.74800
O60         O  0.27271489  0.38731501  0.18243373    -0.75600
O61         O  0.05986292  0.25870101  0.17901844    -0.75000
O62         O  0.24129482  0.30107911  0.17901661    -0.75400
O63         O  0.16947474  0.22781948  0.09235192    -0.75300
O64         O  0.15463537  0.26462840  0.03375367    -0.75100
C65         C  0.27243278  0.43080705  0.05146928     0.76700
C66         C  0.15330024  0.42835630  0.19274263     0.77200
C67         C  0.06912239  0.34151009  0.05151255     0.76100
C68         C  0.07166919  0.22486455  0.19277231     0.76500
C69         C  0.27513164  0.34672542  0.19278387     0.77600
C70         C  0.15847510  0.22752552  0.05149967     0.76700
C71         C  0.04577652  0.99880160  0.25306889     0.79700
N72         N  0.49887586  0.45324548  0.25301436    -0.78600
C73         C  0.45313205  0.45424670  0.25310491     0.82200
N74         N  0.45448491  0.50113428  0.25304807    -0.78500
C75         C  0.00123719  0.04689027  0.25310630     0.82300
N76         N  0.04677642  0.04554456  0.25301034    -0.80200
C77         C  0.14723879  0.46486132  0.22186387     0.79500
N78         N  0.10024817  0.46319299  0.22522401    -0.78600
C79         C  0.09528402  0.49774822  0.25192651     0.82200
N80         N  0.13702885  0.03269852  0.27638792    -0.78500
C81         C  0.18341960  0.03324749  0.27398335     0.82300
N82         N  0.18870070  0.50006522  0.24620170    -0.80200
C83         C  0.46680901  0.15009004  0.27405040     0.79700
N84         N  0.46735367  0.10424580  0.27644930    -0.78600
C85         C  0.50228671  0.09745013  0.25196623     0.82200
N86         N  0.03684062  0.13697676  0.22525856    -0.78500
C87         C  0.03518141  0.18230573  0.22190804     0.82300
N88         N  0.49999236  0.18856290  0.24625650    -0.80200
C89         C  0.31768911  0.35278338  0.22192017     0.79700
N90         N  0.36303275  0.39977400  0.22526598    -0.78600
C91         C  0.40256131  0.40472941  0.25195488     0.82200
N92         N  0.39576068  0.36298879  0.27642354    -0.78500
C93         C  0.34990210  0.31659715  0.27403050     0.82300
N94         N  0.31142408  0.31132399  0.24625565    -0.80200
Zn95       Zn  0.32559542  0.22512998  0.89307715     1.49700
Zn96       Zn  0.33339898  0.16664684  0.80764086     1.49400
Zn97       Zn  0.39963494  0.17437775  0.89309033     1.49100
Zn98       Zn  0.27483669  0.10033835  0.89307154     1.49500
O99         O  0.33336513  0.16662121  0.87216910    -1.84600
O100        O  0.33057527  0.27209761  0.84234597    -0.75200
O101        O  0.39001625  0.15462882  0.78375846    -0.75000
O102        O  0.44018676  0.24122088  0.92902158    -0.74600
O103        O  0.34542287  0.23528865  0.78375110    -0.75200
O104        O  0.38537539  0.27263884  0.93240908    -0.74800
O105        O  0.44162276  0.16937999  0.84237320    -0.75400
O106        O  0.30111821  0.05974822  0.92896238    -0.74800
O107        O  0.26477000  0.11003316  0.78372766    -0.75600
O108        O  0.38735032  0.11459207  0.93241541    -0.75000
O109        O  0.22785941  0.05840353  0.84232492    -0.75400
O110        O  0.22734511  0.11260484  0.93243714    -0.75300
O111        O  0.25875927  0.19884000  0.92901661    -0.75100
C112        C  0.34158052  0.27239358  0.80149377     0.76700
C113        C  0.43093151  0.15841292  0.80151247     0.77200
C114        C  0.42838188  0.27505959  0.94277181     0.76100
C115        C  0.34675822  0.07156143  0.94273438     0.76500
C116        C  0.22761690  0.06911362  0.80146545     0.77600
C117        C  0.22492678  0.15319488  0.94278745     0.76700
C118        C  0.45427647  0.50112284  0.50307744     0.79700
N119        N  0.45327564  0.45438027  0.50301957    -0.78600
C120        C  0.99881542  0.45303520  0.00310968     0.82200
N121        N  0.04557661  0.99878313  0.00305215    -0.78500
C122        C  0.04692730  0.04566955  0.50310809     0.82300
N123        N  0.00118616  0.04667226  0.50301105    -0.80200
C124        C  0.35282099  0.03505533  0.97185425     0.79700
N125        N  0.31136104  0.99985426  0.49619554    -0.78600
C126        C  0.31663101  0.46667380  0.52398934     0.82200
N127        N  0.36302248  0.46722494  0.52639480    -0.78500
C128        C  0.40477700  0.00216923  0.50191627     0.82300
N129        N  0.39981184  0.03672279  0.97521270    -0.80200
C130        C  0.18237219  0.14713542  0.97192619     0.79700
N131        N  0.13702826  0.10014352  0.97527272    -0.78600
C132        C  0.09750009  0.09518780  0.50196179     0.82200
N133        N  0.10429899  0.13692709  0.52643006    -0.78500
C134        C  0.15015613  0.18332007  0.52403765     0.82300
N135        N  0.18863511  0.18859445  0.49626211    -0.80200
C136        C  0.03324425  0.34983427  0.52405035     0.79700
N137        N  0.03269898  0.39567886  0.52645113    -0.78600
C138        C  0.99776528  0.40247438  0.00196920     0.82200
N139        N  0.46321057  0.36294734  0.97526067    -0.78500
C140        C  0.46486991  0.31761967  0.97190878     0.82300
N141        N  0.00006014  0.31136222  0.99625603    -0.80200
Zn142      Zn  0.16665248  0.33327020  0.55764138     1.49700
Zn143      Zn  0.22521758  0.39957973  0.64307417     1.49400
Zn144      Zn  0.10041860  0.32554548  0.64309053     1.49100
Zn145      Zn  0.17445671  0.27479122  0.64308060     1.49500
O146        O  0.16668758  0.33329864  0.62217027    -1.84600
O147        O  0.23528141  0.38988690  0.53372989    -0.75200
O148        O  0.19893963  0.44016784  0.67897025    -0.75000
O149        O  0.05843413  0.33055200  0.59237433    -0.74600
O150        O  0.27218979  0.44151662  0.59232813    -0.75200
O151        O  0.11003147  0.34528411  0.53375689    -0.74800
O152        O  0.11270667  0.38532771  0.68242038    -0.75400
O153        O  0.11467730  0.22728723  0.68241357    -0.74800
O154        O  0.27271504  0.38731520  0.68243369    -0.75600
O155        O  0.05986284  0.25870100  0.67901851    -0.75000
O156        O  0.24129473  0.30107925  0.67901684    -0.75400
O157        O  0.16947481  0.22781964  0.59235245    -0.75300
O158        O  0.15463545  0.26462852  0.53375388    -0.75100
C159        C  0.27243268  0.43080705  0.55146896     0.76700
C160        C  0.15330049  0.42835616  0.69274246     0.77200
C161        C  0.06912219  0.34151004  0.55151283     0.76100
C162        C  0.07167077  0.22486549  0.69277159     0.76500
C163        C  0.27513151  0.34672475  0.69278406     0.77600
C164        C  0.15847491  0.22752515  0.55149846     0.76700
C165        C  0.04577576  0.99880224  0.75306893     0.79700
N166        N  0.49887524  0.45324530  0.75301435    -0.78600
C167        C  0.45313280  0.45424655  0.75310495     0.82200
N168        N  0.45448478  0.50113446  0.75304812    -0.78500
C169        C  0.00123658  0.04688901  0.75310641     0.82300
N170        N  0.04677705  0.04554479  0.75301029    -0.80200
C171        C  0.14723884  0.46486053  0.72186316     0.79500
N172        N  0.10024807  0.46319324  0.72522404    -0.78600
C173        C  0.09528435  0.49774868  0.75192681     0.82200
N174        N  0.13702858  0.03269824  0.77638774    -0.78500
C175        C  0.18342005  0.03324858  0.77398435     0.82300
N176        N  0.18870087  0.50006554  0.74620210    -0.80200
C177        C  0.46680851  0.15009127  0.77405083     0.79700
N178        N  0.46735331  0.10424505  0.77644950    -0.78600
C179        C  0.50228773  0.09745080  0.75196555     0.82200
N180        N  0.03684041  0.13697726  0.72525863    -0.78500
C181        C  0.03518138  0.18230400  0.72190824     0.82300
N182        N  0.49999302  0.18856302  0.74625604    -0.80200
C183        C  0.31768874  0.35278369  0.72192003     0.79700
N184        N  0.36303286  0.39977400  0.72526618    -0.78600
C185        C  0.40256162  0.40472952  0.75195520     0.82200
N186        N  0.39576024  0.36298866  0.77642336    -0.78500
C187        C  0.34990299  0.31659693  0.77403110     0.82300
N188        N  0.31142390  0.31132392  0.74625557    -0.80200
Zn189      Zn  0.32560115  0.72513881  0.39308170     1.49700
Zn190      Zn  0.33340241  0.66665205  0.30764412     1.49400
Zn191      Zn  0.39963461  0.67438174  0.39309623     1.49100
Zn192      Zn  0.27483652  0.60034781  0.39307356     1.49500
O193        O  0.33336757  0.66662900  0.37217243    -1.84600
O194        O  0.33059347  0.77211181  0.34235087    -0.75200
O195        O  0.39002298  0.65463377  0.28376472    -0.75000
O196        O  0.44018556  0.74121941  0.42903296    -0.74600
O197        O  0.34542609  0.73529350  0.28375441    -0.75200
O198        O  0.38537550  0.77263873  0.43242285    -0.74800
O199        O  0.44162594  0.66938504  0.34238167    -0.75400
O200        O  0.30111005  0.55975814  0.42897112    -0.74800
O201        O  0.26477141  0.61003801  0.28373031    -0.75600
O202        O  0.38734392  0.61459471  0.43241929    -0.75000
O203        O  0.22786450  0.55840925  0.34232825    -0.75400
O204        O  0.22733780  0.61261322  0.43242777    -0.75300
O205        O  0.25875640  0.69884917  0.42900940    -0.75100
C206        C  0.34159224  0.77240267  0.30149745     0.76700
C207        C  0.43093517  0.65841780  0.30152142     0.77200
C208        C  0.42838030  0.77505582  0.44278630     0.76100
C209        C  0.34674980  0.57156713  0.44274195     0.76500
C210        C  0.22762039  0.56911837  0.30147002     0.77600
C211        C  0.22491831  0.65320299  0.44277550     0.76700
C212        C  0.45428944  0.00112289  0.00308151     0.79700
N213        N  0.45328647  0.95437965  0.00302562    -0.78600
C214        C  0.99882557  0.95303216  0.50312420     0.82200
N215        N  0.04556559  0.49878747  0.50303101    -0.78500
C216        C  0.04691603  0.54567370  0.00308872     0.82300
N217        N  0.00117183  0.54667364  0.00300048    -0.80200
C218        C  0.35281058  0.53506107  0.47186025     0.79700
N219        N  0.31135044  0.49985977  0.99620142    -0.78600
C220        C  0.31664232  0.96667141  0.02398638     0.82200
N221        N  0.36303542  0.96722512  0.02639488    -0.78500
C222        C  0.40476450  0.50216959  0.00191661     0.82300
N223        N  0.39979943  0.53672536  0.47521627    -0.80200
C224        C  0.18235850  0.64714172  0.47190728     0.79700
N225        N  0.13701479  0.60015120  0.47525043    -0.78600
C226        C  0.09748505  0.59519220  0.00193971     0.82200
N227        N  0.10428547  0.63693033  0.02641283    -0.78500
C228        C  0.15014378  0.68332303  0.02402345     0.82300
N229        N  0.18862228  0.68859836  0.99624721    -0.80200
C230        C  0.03324509  0.84982415  0.02406375     0.79700
N231        N  0.03270547  0.89567262  0.02646382    -0.78600
C232        C  0.99777106  0.90246958  0.50198345     0.82200
N233        N  0.46321317  0.86294288  0.47527763    -0.78500
C234        C  0.46486875  0.81761270  0.47192680     0.82300
N235        N  0.00005688  0.81135268  0.49627172    -0.80200
Zn236      Zn  0.16666067  0.83327389  0.05764357     1.49700
Zn237      Zn  0.22522426  0.89957568  0.14307187     1.49400
Zn238      Zn  0.10042586  0.82553611  0.14309581     1.49100
Zn239      Zn  0.17446101  0.77478192  0.14307761     1.49500
O240        O  0.16669472  0.83329297  0.12217174    -1.84600
O241        O  0.23529096  0.88988555  0.03372831    -0.75200
O242        O  0.19894552  0.94016668  0.17896404    -0.75000
O243        O  0.05843102  0.83052452  0.09238131    -0.74600
O244        O  0.27220155  0.94151281  0.09232691    -0.75200
O245        O  0.11004378  0.84529655  0.03376727    -0.74800
O246        O  0.11271241  0.88532619  0.18241441    -0.75400
O247        O  0.11468467  0.72727620  0.18241719    -0.74800
O248        O  0.27271648  0.88730746  0.18243285    -0.75600
O249        O  0.05987836  0.75869970  0.17903517    -0.75000
O250        O  0.24130360  0.80107249  0.17900959    -0.75400
O251        O  0.16947050  0.72781340  0.09234249    -0.75300
O252        O  0.15463018  0.76463172  0.03375072    -0.75100
C253        C  0.27244434  0.93080422  0.05146580     0.76700
C254        C  0.15330628  0.92835723  0.19273411     0.77200
C255        C  0.06912551  0.84150162  0.05152197     0.76100
C256        C  0.07168343  0.72486235  0.19278357     0.76500
C257        C  0.27513595  0.84671854  0.19277942     0.77600
C258        C  0.15846636  0.72752314  0.05149082     0.76700
C259        C  0.04577141  0.49879460  0.25309027     0.79700
N260        N  0.49888131  0.95325199  0.25299882    -0.78600
C261        C  0.45313628  0.95424978  0.25309309     0.82200
N262        N  0.45448681  0.00113749  0.25303449    -0.78500
C263        C  0.00123635  0.54688602  0.25312542     0.82300
N264        N  0.04677472  0.54553809  0.25303310    -0.80200
C265        C  0.14724399  0.96486490  0.22185125     0.79500
N266        N  0.10025362  0.96320037  0.22520513    -0.78600
C267        C  0.09528879  0.99775596  0.25190680     0.82200
N268        N  0.13702785  0.53269565  0.27640187    -0.78500
C269        C  0.18342038  0.53325009  0.27399085     0.82300
N270        N  0.18870168  0.00006394  0.24619498    -0.80200
C271        C  0.46681630  0.65009459  0.27406158     0.79700
N272        N  0.46735643  0.60424545  0.27646326    -0.78600
C273        C  0.50229068  0.59744880  0.25198366     0.82200
N274        N  0.03684884  0.63697433  0.22527731    -0.78500
C275        C  0.03519306  0.68230304  0.22192563     0.82300
N276        N  0.50000456  0.68856448  0.24626951    -0.80200
C277        C  0.31769532  0.85278120  0.22191593     0.79700
N278        N  0.36303718  0.89977205  0.22525863    -0.78600
C279        C  0.40256715  0.90473279  0.25194870     0.82200
N280        N  0.39576908  0.86299683  0.27642175    -0.78500
C281        C  0.34991061  0.81660271  0.27403207     0.82300
N282        N  0.31143206  0.81132466  0.24625601    -0.80200
Zn283      Zn  0.32560113  0.72513892  0.89308176     1.49700
Zn284      Zn  0.33340246  0.66665203  0.80764417     1.49400
Zn285      Zn  0.39963463  0.67438171  0.89309625     1.49100
Zn286      Zn  0.27483656  0.60034791  0.89307352     1.49500
O287        O  0.33336766  0.66662909  0.87217263    -1.84600
O288        O  0.33059355  0.77211179  0.84235087    -0.75200
O289        O  0.39002260  0.65463387  0.78376477    -0.75000
O290        O  0.44018560  0.74121943  0.92903293    -0.74600
O291        O  0.34542607  0.73529342  0.78375449    -0.75200
O292        O  0.38537579  0.77263883  0.93242305    -0.74800
O293        O  0.44162590  0.66938499  0.84238182    -0.75400
O294        O  0.30111037  0.55975839  0.92897118    -0.74800
O295        O  0.26477195  0.61003826  0.78373049    -0.75600
O296        O  0.38734425  0.61459489  0.93241925    -0.75000
O297        O  0.22786472  0.55840934  0.84232872    -0.75400
O298        O  0.22733762  0.61261349  0.93242771    -0.75300
O299        O  0.25875606  0.69884920  0.92900959    -0.75100
C300        C  0.34159205  0.77240234  0.80149776     0.76700
C301        C  0.43093672  0.65841805  0.80152134     0.77200
C302        C  0.42837960  0.77505563  0.94278603     0.76100
C303        C  0.34674889  0.57156686  0.94274157     0.76500
C304        C  0.22761949  0.56911749  0.80146882     0.77600
C305        C  0.22491888  0.65320260  0.94277487     0.76700
C306        C  0.45429002  0.00112324  0.50308134     0.79700
N307        N  0.45328649  0.95437869  0.50302549    -0.78600
C308        C  0.99882429  0.95303087  0.00312418     0.82200
N309        N  0.04556535  0.49878793  0.00303112    -0.78500
C310        C  0.04691507  0.54567435  0.50308882     0.82300
N311        N  0.00117203  0.54667329  0.50300059    -0.80200
C312        C  0.35280988  0.53506012  0.97186095     0.79700
N313        N  0.31134986  0.49985933  0.49620152    -0.78600
C314        C  0.31664330  0.96667159  0.52398611     0.82200
N315        N  0.36303465  0.96722457  0.52639526    -0.78500
C316        C  0.40476341  0.50216879  0.50191696     0.82300
N317        N  0.39979930  0.53672532  0.97521618    -0.80200
C318        C  0.18235829  0.64714212  0.97190766     0.79700
N319        N  0.13701453  0.60015136  0.97525056    -0.78600
C320        C  0.09748494  0.59519270  0.50194035     0.82200
N321        N  0.10428551  0.63693027  0.52641259    -0.78500
C322        C  0.15014332  0.68332251  0.52402350     0.82300
N323        N  0.18862237  0.68859890  0.49624744    -0.80200
C324        C  0.03324526  0.84982389  0.52406386     0.79700
N325        N  0.03270513  0.89567260  0.52646370    -0.78600
C326        C  0.99777102  0.90246932  0.00198355     0.82200
N327        N  0.46321328  0.86294317  0.97527760    -0.78500
C328        C  0.46486797  0.81761302  0.97192606     0.82300
N329        N  0.00005718  0.81135271  0.99627194    -0.80200
Zn330      Zn  0.16666060  0.83327395  0.55764365     1.49700
Zn331      Zn  0.22522420  0.89957559  0.64307185     1.49400
Zn332      Zn  0.10042571  0.82553614  0.64309575     1.49100
Zn333      Zn  0.17446098  0.77478188  0.64307755     1.49500
O334        O  0.16669445  0.83329305  0.62217161    -1.84600
O335        O  0.23529051  0.88988504  0.53372813    -0.75200
O336        O  0.19894577  0.94016638  0.67896381    -0.75000
O337        O  0.05843089  0.83052457  0.59238107    -0.74600
O338        O  0.27220154  0.94151268  0.59232642    -0.75200
O339        O  0.11004380  0.84529661  0.53376731    -0.74800
O340        O  0.11271233  0.88532609  0.68241425    -0.75400
O341        O  0.11468503  0.72727650  0.68241695    -0.74800
O342        O  0.27271626  0.88730760  0.68243262    -0.75600
O343        O  0.05987840  0.75870005  0.67903492    -0.75000
O344        O  0.24130363  0.80107239  0.67900954    -0.75400
O345        O  0.16947067  0.72781360  0.59234284    -0.75300
O346        O  0.15463000  0.76463173  0.53375088    -0.75100
C347        C  0.27244510  0.93080542  0.55146771     0.76700
C348        C  0.15330595  0.92835778  0.69273463     0.77200
C349        C  0.06912556  0.84150160  0.55152255     0.76100
C350        C  0.07168236  0.72486125  0.69278429     0.76500
C351        C  0.27513664  0.84671799  0.69277988     0.77600
C352        C  0.15846624  0.72752286  0.55149005     0.76700
C353        C  0.04577184  0.49879462  0.75309021     0.79700
N354        N  0.49888072  0.95325137  0.75299884    -0.78600
C355        C  0.45313649  0.95425119  0.75309304     0.82200
N356        N  0.45448703  0.00113712  0.75303443    -0.78500
C357        C  0.00123662  0.54688629  0.75312538     0.82300
N358        N  0.04677458  0.54553801  0.75303304    -0.80200
C359        C  0.14724341  0.96486460  0.72185129     0.79500
N360        N  0.10025398  0.96320039  0.72520512    -0.78600
C361        C  0.09528910  0.99775615  0.75190669     0.82200
N362        N  0.13702766  0.53269529  0.77640161    -0.78500
C363        C  0.18342095  0.53325047  0.77399114     0.82300
N364        N  0.18870162  0.00006348  0.74619476    -0.80200
C365        C  0.46681633  0.65009404  0.77406164     0.79700
N366        N  0.46735634  0.60424610  0.77646348    -0.78600
C367        C  0.50229112  0.59744842  0.75198339     0.82200
N368        N  0.03684933  0.63697408  0.72527712    -0.78500
C369        C  0.03519332  0.68230418  0.72192554     0.82300
N370        N  0.50000437  0.68856475  0.74626983    -0.80200
C371        C  0.31769460  0.85278017  0.72191595     0.79700
N372        N  0.36303752  0.89977240  0.72525860    -0.78600
C373        C  0.40256722  0.90473296  0.75194837     0.82200
N374        N  0.39576852  0.86299601  0.77642180    -0.78500
C375        C  0.34991115  0.81660315  0.77403206     0.82300
N376        N  0.31143207  0.81132501  0.74625548    -0.80200
Zn377      Zn  0.82559542  0.22512996  0.39307717     1.49700
Zn378      Zn  0.83339904  0.16664695  0.30764091     1.49400
Zn379      Zn  0.89963499  0.17437782  0.39309035     1.49100
Zn380      Zn  0.77483665  0.10033828  0.39307154     1.49500
O381        O  0.83336515  0.16662128  0.37216933    -1.84600
O382        O  0.83057538  0.27209776  0.34234570    -0.75200
O383        O  0.89001653  0.15462893  0.28375844    -0.75000
O384        O  0.94018697  0.24122132  0.42902167    -0.74600
O385        O  0.84542284  0.23528903  0.28375104    -0.75200
O386        O  0.88537523  0.27263880  0.43240916    -0.74800
O387        O  0.94162286  0.16937994  0.34237277    -0.75400
O388        O  0.80111796  0.05974850  0.42896209    -0.74800
O389        O  0.76476994  0.11003324  0.28372771    -0.75600
O390        O  0.88735075  0.11459298  0.43241516    -0.75000
O391        O  0.72785938  0.05840340  0.34232467    -0.75400
O392        O  0.72734500  0.11260484  0.43243707    -0.75300
O393        O  0.75875953  0.19884028  0.42901651    -0.75100
C394        C  0.84158027  0.27239259  0.30149464     0.76700
C395        C  0.93093085  0.15841349  0.30151391     0.77200
C396        C  0.92838190  0.27505892  0.44277163     0.76100
C397        C  0.84675795  0.07155959  0.44273556     0.76500
C398        C  0.72761754  0.06911401  0.30146626     0.77600
C399        C  0.72492616  0.15319424  0.44278781     0.76700
C400        C  0.95427547  0.50112263  0.00307764     0.79700
N401        N  0.95327574  0.45438025  0.00301955    -0.78600
C402        C  0.49881512  0.45303546  0.50310977     0.82200
N403        N  0.54557684  0.99878297  0.50305205    -0.78500
C404        C  0.54692862  0.04567085  0.00310808     0.82300
N405        N  0.50118616  0.04667185  0.00301123    -0.80200
C406        C  0.85282021  0.03505458  0.47185478     0.79700
N407        N  0.81136110  0.99985384  0.99619580    -0.78600
C408        C  0.81663116  0.46667412  0.02398901     0.82200
N409        N  0.86302178  0.46722431  0.02639525    -0.78500
C410        C  0.90477690  0.00216920  0.00191650     0.82300
N411        N  0.89981192  0.03672293  0.47521247    -0.80200
C412        C  0.68237105  0.14713415  0.47192630     0.79700
N413        N  0.63702871  0.10014387  0.47527248    -0.78600
C414        C  0.59749931  0.09518720  0.00196196     0.82200
N415        N  0.60429949  0.13692745  0.02642998    -0.78500
C416        C  0.65015591  0.18331965  0.02403746     0.82300
N417        N  0.68863473  0.18859413  0.99626226    -0.80200
C418        C  0.53324362  0.34983336  0.02405016     0.79700
N419        N  0.53269866  0.39567885  0.02645103    -0.78600
C420        C  0.49776415  0.40247331  0.50196844     0.82200
N421        N  0.96321081  0.36294811  0.47526079    -0.78500
C422        C  0.96487065  0.31761970  0.47190937     0.82300
N423        N  0.50005946  0.31136166  0.49625538    -0.80200
Zn424      Zn  0.66665245  0.33327016  0.05764137     1.49700
Zn425      Zn  0.72521743  0.39957959  0.14307419     1.49400
Zn426      Zn  0.60041855  0.32554540  0.14309060     1.49100
Zn427      Zn  0.67445668  0.27479115  0.14308055     1.49500
O428        O  0.66668747  0.33329853  0.12217010    -1.84600
O429        O  0.73528144  0.38988691  0.03372983    -0.75200
O430        O  0.69893931  0.44016778  0.17897038    -0.75000
O431        O  0.55843403  0.33055189  0.09237453    -0.74600
O432        O  0.77218981  0.44151654  0.09232812    -0.75200
O433        O  0.61003126  0.34528399  0.03375694    -0.74800
O434        O  0.61270641  0.38532738  0.18242046    -0.75400
O435        O  0.61467741  0.22728724  0.18241339    -0.74800
O436        O  0.77271489  0.38731508  0.18243376    -0.75600
O437        O  0.55986280  0.25870083  0.17901864    -0.75000
O438        O  0.74129467  0.30107911  0.17901664    -0.75400
O439        O  0.66947471  0.22781948  0.09235192    -0.75300
O440        O  0.65463544  0.26462844  0.03375367    -0.75100
C441        C  0.77243273  0.43080696  0.05146930     0.76700
C442        C  0.65330117  0.42835627  0.19274219     0.77200
C443        C  0.56912229  0.34151006  0.05151264     0.76100
C444        C  0.57167031  0.22486520  0.19277192     0.76500
C445        C  0.77513195  0.34672530  0.19278422     0.77600
C446        C  0.65847526  0.22752560  0.05149974     0.76700
C447        C  0.54577539  0.99880202  0.25306888     0.79700
N448        N  0.99887530  0.45324530  0.25301434    -0.78600
C449        C  0.95313277  0.45424679  0.25310484     0.82200
N450        N  0.95448456  0.50113433  0.25304805    -0.78500
C451        C  0.50123775  0.04689047  0.25310629     0.82300
N452        N  0.54677673  0.04554414  0.25301034    -0.80200
C453        C  0.64723939  0.46486163  0.22186408     0.79500
N454        N  0.60024801  0.46319304  0.22522407    -0.78600
C455        C  0.59528393  0.49774807  0.25192640     0.82200
N456        N  0.63702905  0.03269848  0.27638785    -0.78500
C457        C  0.68341948  0.03324760  0.27398343     0.82300
N458        N  0.68870044  0.50006502  0.24620156    -0.80200
C459        C  0.96680851  0.15009004  0.27405082     0.79700
N460        N  0.96735383  0.10424574  0.27644925    -0.78600
C461        C  0.00228675  0.09744974  0.25196635     0.82200
N462        N  0.53684040  0.13697668  0.22525872    -0.78500
C463        C  0.53518178  0.18230554  0.22190788     0.82300
N464        N  0.99999296  0.18856285  0.24625611    -0.80200
C465        C  0.81768821  0.35278319  0.22191977     0.79700
N466        N  0.86303275  0.39977401  0.22526604    -0.78600
C467        C  0.90256169  0.40472932  0.25195531     0.82200
N468        N  0.89575997  0.36298869  0.27642312    -0.78500
C469        C  0.84990318  0.31659737  0.27403106     0.82300
N470        N  0.81142394  0.31132392  0.24625557    -0.80200
Zn471      Zn  0.82559539  0.22512999  0.89307714     1.49700
Zn472      Zn  0.83339893  0.16664685  0.80764088     1.49400
Zn473      Zn  0.89963498  0.17437778  0.89309032     1.49100
Zn474      Zn  0.77483674  0.10033834  0.89307151     1.49500
O475        O  0.83336510  0.16662128  0.87216915    -1.84600
O476        O  0.83057509  0.27209762  0.84234615    -0.75200
O477        O  0.89001668  0.15462886  0.78375850    -0.75000
O478        O  0.94018692  0.24122079  0.92902153    -0.74600
O479        O  0.84542271  0.23528892  0.78375115    -0.75200
O480        O  0.88537585  0.27263892  0.93240924    -0.74800
O481        O  0.94162294  0.16938000  0.84237315    -0.75400
O482        O  0.80111862  0.05974828  0.92896248    -0.74800
O483        O  0.76476986  0.11003314  0.78372760    -0.75600
O484        O  0.88735060  0.11459225  0.93241545    -0.75000
O485        O  0.72785940  0.05840348  0.84232488    -0.75400
O486        O  0.72734500  0.11260503  0.93243730    -0.75300
O487        O  0.75875886  0.19883980  0.92901678    -0.75100
C488        C  0.84158087  0.27239306  0.80149342     0.76700
C489        C  0.93093032  0.15841303  0.80151240     0.77200
C490        C  0.92838061  0.27505957  0.94277156     0.76100
C491        C  0.84675695  0.07156085  0.94273421     0.76500
C492        C  0.72761692  0.06911360  0.80146553     0.77600
C493        C  0.72492760  0.15319474  0.94278692     0.76700
C494        C  0.95427657  0.50112300  0.50307743     0.79700
N495        N  0.95327542  0.45438025  0.50301957    -0.78600
C496        C  0.49881569  0.45303517  0.00310970     0.82200
N497        N  0.54557634  0.99878300  0.00305213    -0.78500
C498        C  0.54692720  0.04566935  0.50310808     0.82300
N499        N  0.50118621  0.04667225  0.50301105    -0.80200
C500        C  0.85282067  0.03505534  0.97185430     0.79700
N501        N  0.81136120  0.99985436  0.49619543    -0.78600
C502        C  0.81663155  0.46667378  0.52398929     0.82200
N503        N  0.86302218  0.46722486  0.52639482    -0.78500
C504        C  0.90477704  0.00216908  0.50191642     0.82300
N505        N  0.89981206  0.03672268  0.97521284    -0.80200
C506        C  0.68237225  0.14713528  0.97192617     0.79700
N507        N  0.63702839  0.10014358  0.97527267    -0.78600
C508        C  0.59750035  0.09518800  0.50196182     0.82200
N509        N  0.60429889  0.13692704  0.52643008    -0.78500
C510        C  0.65015606  0.18332015  0.52403772     0.82300
N511        N  0.68863518  0.18859450  0.49626201    -0.80200
C512        C  0.53324406  0.34983442  0.52405015     0.79700
N513        N  0.53269901  0.39567874  0.52645123    -0.78600
C514        C  0.49776516  0.40247432  0.00196911     0.82200
N515        N  0.96321051  0.36294714  0.97526066    -0.78500
C516        C  0.96486956  0.31761990  0.97190862     0.82300
N517        N  0.50005988  0.31136214  0.99625584    -0.80200
Zn518      Zn  0.66665244  0.33327022  0.55764140     1.49700
Zn519      Zn  0.72521760  0.39957972  0.64307414     1.49400
Zn520      Zn  0.60041854  0.32554547  0.64309054     1.49100
Zn521      Zn  0.67445667  0.27479120  0.64308062     1.49500
O522        O  0.66668743  0.33329861  0.62217031    -1.84600
O523        O  0.73528105  0.38988670  0.53372987    -0.75200
O524        O  0.69894000  0.44016781  0.67897007    -0.75000
O525        O  0.55843409  0.33055207  0.59237421    -0.74600
O526        O  0.77218971  0.44151655  0.59232819    -0.75200
O527        O  0.61003168  0.34528414  0.53375682    -0.74800
O528        O  0.61270683  0.38532783  0.68242039    -0.75400
O529        O  0.61467765  0.22728744  0.68241342    -0.74800
O530        O  0.77271509  0.38731515  0.68243371    -0.75600
O531        O  0.55986281  0.25870092  0.67901850    -0.75000
O532        O  0.74129480  0.30107925  0.67901684    -0.75400
O533        O  0.66947470  0.22781964  0.59235251    -0.75300
O534        O  0.65463540  0.26462868  0.53375387    -0.75100
C535        C  0.77243327  0.43080760  0.55146888     0.76700
C536        C  0.65329953  0.42835604  0.69274282     0.77200
C537        C  0.56912152  0.34151005  0.55151302     0.76100
C538        C  0.57166968  0.22486546  0.69277172     0.76500
C539        C  0.77513117  0.34672487  0.69278374     0.77600
C540        C  0.65847485  0.22752469  0.55149833     0.76700
C541        C  0.54577661  0.99880203  0.75306890     0.79700
N542        N  0.99887529  0.45324543  0.75301436    -0.78600
C543        C  0.95313274  0.45424656  0.75310502     0.82200
N544        N  0.95448477  0.50113434  0.75304812    -0.78500
C545        C  0.50123662  0.04688922  0.75310640     0.82300
N546        N  0.54677646  0.04554487  0.75301028    -0.80200
C547        C  0.64723852  0.46486042  0.72186305     0.79500
N548        N  0.60024802  0.46319311  0.72522396    -0.78600
C549        C  0.59528484  0.49774882  0.75192693     0.82200
N550        N  0.63702897  0.03269827  0.77638776    -0.78500
C551        C  0.68341957  0.03324848  0.77398435     0.82300
N552        N  0.68870110  0.50006557  0.74620210    -0.80200
C553        C  0.96680931  0.15009111  0.77405025     0.79700
N554        N  0.96735331  0.10424499  0.77644941    -0.78600
C555        C  0.00228731  0.09745099  0.75196577     0.82200
N556        N  0.53684028  0.13697704  0.72525862    -0.78500
C557        C  0.53518092  0.18230440  0.72190839     0.82300
N558        N  0.99999240  0.18856310  0.74625645    -0.80200
C559        C  0.81768961  0.35278382  0.72192054     0.79700
N560        N  0.86303260  0.39977387  0.72526606    -0.78600
C561        C  0.90256122  0.40472948  0.75195495     0.82200
N562        N  0.89576096  0.36298892  0.77642368    -0.78500
C563        C  0.84990189  0.31659670  0.77403058     0.82300
N564        N  0.81142407  0.31132403  0.74625570    -0.80200
Zn565      Zn  0.82560111  0.72513882  0.39308171     1.49700
Zn566      Zn  0.83340243  0.66665201  0.30764414     1.49400
Zn567      Zn  0.89963464  0.67438172  0.39309623     1.49100
Zn568      Zn  0.77483649  0.60034781  0.39307355     1.49500
O569        O  0.83336745  0.66662900  0.37217248    -1.84600
O570        O  0.83059358  0.77211195  0.34235081    -0.75200
O571        O  0.89002257  0.65463381  0.28376463    -0.75000
O572        O  0.94018561  0.74121939  0.42903296    -0.74600
O573        O  0.84542603  0.73529358  0.28375439    -0.75200
O574        O  0.88537559  0.77263874  0.43242288    -0.74800
O575        O  0.94162586  0.66938506  0.34238167    -0.75400
O576        O  0.80111016  0.55975828  0.42897112    -0.74800
O577        O  0.76477150  0.61003793  0.28373030    -0.75600
O578        O  0.88734405  0.61459480  0.43241923    -0.75000
O579        O  0.72786447  0.55840921  0.34232823    -0.75400
O580        O  0.72733763  0.61261326  0.43242777    -0.75300
O581        O  0.75875603  0.69884897  0.42900958    -0.75100
C582        C  0.84159217  0.77240232  0.30149749     0.76700
C583        C  0.93093667  0.65841775  0.30152150     0.77200
C584        C  0.92838006  0.77505587  0.44278633     0.76100
C585        C  0.84674964  0.57156700  0.44274193     0.76500
C586        C  0.72762042  0.56911833  0.30147002     0.77600
C587        C  0.72491878  0.65320310  0.44277518     0.76700
C588        C  0.95428964  0.00112313  0.00308149     0.79700
N589        N  0.95328711  0.95437949  0.00302561    -0.78600
C590        C  0.49882502  0.95303202  0.50312418     0.82200
N591        N  0.54556562  0.49878742  0.50303101    -0.78500
C592        C  0.54691562  0.54567368  0.00308874     0.82300
N593        N  0.50117176  0.54667367  0.00300049    -0.80200
C594        C  0.85281022  0.53506108  0.47186018     0.79700
N595        N  0.81135027  0.49985974  0.99620141    -0.78600
C596        C  0.81664264  0.96667147  0.02398641     0.82200
N597        N  0.86303519  0.96722507  0.02639493    -0.78500
C598        C  0.90476459  0.50216974  0.00191645     0.82300
N599        N  0.89979974  0.53672536  0.47521627    -0.80200
C600        C  0.68235885  0.64714189  0.47190718     0.79700
N601        N  0.63701437  0.60015107  0.47525064    -0.78600
C602        C  0.59748496  0.59519222  0.00193990     0.82200
N603        N  0.60428528  0.63693026  0.02641282    -0.78500
C604        C  0.65014392  0.68332311  0.02402335     0.82300
N605        N  0.68862237  0.68859836  0.99624708    -0.80200
C606        C  0.53324531  0.84982403  0.02406400     0.79700
N607        N  0.53270499  0.89567289  0.02646357    -0.78600
C608        C  0.49777063  0.90246956  0.50198326     0.82200
N609        N  0.96321312  0.86294246  0.47527752    -0.78500
C610        C  0.96486815  0.81761330  0.47192650     0.82300
N611        N  0.50005637  0.81135251  0.49627138    -0.80200
Zn612      Zn  0.66666065  0.83327390  0.05764357     1.49700
Zn613      Zn  0.72522423  0.89957567  0.14307186     1.49400
Zn614      Zn  0.60042587  0.82553614  0.14309580     1.49100
Zn615      Zn  0.67446103  0.77478191  0.14307761     1.49500
O616        O  0.66669468  0.83329293  0.12217171    -1.84600
O617        O  0.73529103  0.88988552  0.03372832    -0.75200
O618        O  0.69894560  0.94016673  0.17896404    -0.75000
O619        O  0.55843106  0.83052446  0.09238143    -0.74600
O620        O  0.77220148  0.94151279  0.09232693    -0.75200
O621        O  0.61004385  0.84529655  0.03376742    -0.74800
O622        O  0.61271250  0.88532620  0.18241438    -0.75400
O623        O  0.61468484  0.72727628  0.18241704    -0.74800
O624        O  0.77271632  0.88730762  0.18243273    -0.75600
O625        O  0.55987842  0.75869981  0.17903514    -0.75000
O626        O  0.74130357  0.80107245  0.17900964    -0.75400
O627        O  0.66947055  0.72781341  0.09234239    -0.75300
O628        O  0.65463001  0.76463166  0.03375069    -0.75100
C629        C  0.77244415  0.93080405  0.05146581     0.76700
C630        C  0.65330595  0.92835711  0.19273417     0.77200
C631        C  0.56912550  0.84150152  0.05152200     0.76100
C632        C  0.57168286  0.72486194  0.19278385     0.76500
C633        C  0.77513653  0.84671836  0.19277986     0.77600
C634        C  0.65846637  0.72752304  0.05149095     0.76700
C635        C  0.54577154  0.49879460  0.25309029     0.79700
N636        N  0.99888087  0.95325189  0.25299884    -0.78600
C637        C  0.95313616  0.95425027  0.25309305     0.82200
N638        N  0.95448712  0.00113725  0.25303449    -0.78500
C639        C  0.50123635  0.54688589  0.25312535     0.82300
N640        N  0.54677468  0.54553807  0.25303311    -0.80200
C641        C  0.64724362  0.96486480  0.22185122     0.79500
N642        N  0.60025387  0.96320023  0.22520497    -0.78600
C643        C  0.59528897  0.99775627  0.25190703     0.82200
N644        N  0.63702792  0.53269569  0.27640190    -0.78500
C645        C  0.68342071  0.53325016  0.27399086     0.82300
N646        N  0.68870176  0.00006401  0.24619509    -0.80200
C647        C  0.96681602  0.65009464  0.27406168     0.79700
N648        N  0.96735602  0.60424567  0.27646351    -0.78600
C649        C  0.00229174  0.59744842  0.25198306     0.82200
N650        N  0.53684918  0.63697414  0.22527707    -0.78500
C651        C  0.53519306  0.68230340  0.22192561     0.82300
N652        N  0.00000465  0.68856449  0.24626951    -0.80200
C653        C  0.81769495  0.85278091  0.22191585     0.79700
N654        N  0.86303737  0.89977219  0.22525865    -0.78600
C655        C  0.90256708  0.90473247  0.25194874     0.82200
N656        N  0.89576899  0.86299669  0.27642169    -0.78500
C657        C  0.84991067  0.81660268  0.27403204     0.82300
N658        N  0.81143204  0.81132473  0.24625584    -0.80200
Zn659      Zn  0.82560115  0.72513892  0.89308176     1.49700
Zn660      Zn  0.83340237  0.66665205  0.80764415     1.49400
Zn661      Zn  0.89963453  0.67438173  0.89309625     1.49100
Zn662      Zn  0.77483654  0.60034792  0.89307354     1.49500
O663        O  0.83336750  0.66662909  0.87217259    -1.84600
O664        O  0.83059358  0.77211186  0.84235089    -0.75200
O665        O  0.89002296  0.65463386  0.78376481    -0.75000
O666        O  0.94018557  0.74121949  0.92903297    -0.74600
O667        O  0.84542595  0.73529355  0.78375446    -0.75200
O668        O  0.88537595  0.77263894  0.93242320    -0.74800
O669        O  0.94162591  0.66938493  0.84238180    -0.75400
O670        O  0.80111049  0.55975828  0.92897128    -0.74800
O671        O  0.76477172  0.61003808  0.78373047    -0.75600
O672        O  0.88734430  0.61459504  0.93241925    -0.75000
O673        O  0.72786465  0.55840938  0.84232871    -0.75400
O674        O  0.72733779  0.61261350  0.93242774    -0.75300
O675        O  0.75875633  0.69884937  0.92900944    -0.75100
C676        C  0.84159211  0.77240190  0.80149766     0.76700
C677        C  0.93093531  0.65841800  0.80152123     0.77200
C678        C  0.92837902  0.77505524  0.94278575     0.76100
C679        C  0.84674825  0.57156643  0.94274161     0.76500
C680        C  0.72761993  0.56911785  0.80146889     0.77600
C681        C  0.72491855  0.65320259  0.94277509     0.76700
C682        C  0.95429008  0.00112300  0.50308142     0.79700
N683        N  0.95328615  0.95437880  0.50302549    -0.78600
C684        C  0.49882553  0.95303097  0.00312415     0.82200
N685        N  0.54556537  0.49878771  0.00303107    -0.78500
C686        C  0.54691550  0.54567453  0.50308882     0.82300
N687        N  0.50117184  0.54667332  0.50300056    -0.80200
C688        C  0.85280956  0.53506027  0.97186085     0.79700
N689        N  0.81134985  0.49985926  0.49620158    -0.78600
C690        C  0.81664318  0.96667151  0.52398615     0.82200
N691        N  0.86303463  0.96722453  0.52639521    -0.78500
C692        C  0.90476337  0.50216869  0.50191696     0.82300
N693        N  0.89979957  0.53672525  0.97521628    -0.80200
C694        C  0.68235780  0.64714198  0.97190790     0.79700
N695        N  0.63701497  0.60015150  0.97525040    -0.78600
C696        C  0.59748488  0.59519248  0.50194014     0.82200
N697        N  0.60428561  0.63693046  0.52641267    -0.78500
C698        C  0.65014330  0.68332242  0.52402346     0.82300
N699        N  0.68862216  0.68859880  0.49624757    -0.80200
C700        C  0.53324570  0.84982485  0.52406417     0.79700
N701        N  0.53270533  0.89567211  0.52646380    -0.78600
C702        C  0.49777152  0.90246915  0.00198386     0.82200
N703        N  0.96321341  0.86294304  0.97527778    -0.78500
C704        C  0.96486838  0.81761326  0.97192630     0.82300
N705        N  0.50005720  0.81135266  0.99627199    -0.80200
Zn706      Zn  0.66666065  0.83327393  0.55764365     1.49700
Zn707      Zn  0.72522420  0.89957560  0.64307186     1.49400
Zn708      Zn  0.60042580  0.82553611  0.64309576     1.49100
Zn709      Zn  0.67446107  0.77478189  0.64307755     1.49500
O710        O  0.66669454  0.83329303  0.62217163    -1.84600
O711        O  0.73529079  0.88988524  0.53372806    -0.75200
O712        O  0.69894570  0.94016635  0.67896386    -0.75000
O713        O  0.55843098  0.83052458  0.59238102    -0.74600
O714        O  0.77220156  0.94151278  0.59232638    -0.75200
O715        O  0.61004391  0.84529656  0.53376722    -0.74800
O716        O  0.61271222  0.88532594  0.68241420    -0.75400
O717        O  0.61468481  0.72727641  0.68241704    -0.74800
O718        O  0.77271630  0.88730750  0.68243255    -0.75600
O719        O  0.55987840  0.75870002  0.67903489    -0.75000
O720        O  0.74130350  0.80107221  0.67900946    -0.75400
O721        O  0.66947075  0.72781359  0.59234281    -0.75300
O722        O  0.65463008  0.76463176  0.53375089    -0.75100
C723        C  0.77244477  0.93080506  0.55146753     0.76700
C724        C  0.65330612  0.92835805  0.69273472     0.77200
C725        C  0.56912527  0.84150152  0.55152264     0.76100
C726        C  0.57168299  0.72486158  0.69278408     0.76500
C727        C  0.77513714  0.84671871  0.69277997     0.77600
C728        C  0.65846632  0.72752289  0.55149017     0.76700
C729        C  0.54577148  0.49879474  0.75309020     0.79700
N730        N  0.99888045  0.95325127  0.75299883    -0.78600
C731        C  0.95313783  0.95425128  0.75309306     0.82200
N732        N  0.95448673  0.00113730  0.75303445    -0.78500
C733        C  0.50123655  0.54688617  0.75312541     0.82300
N734        N  0.54677476  0.54553802  0.75303303    -0.80200
C735        C  0.64724399  0.96486455  0.72185119     0.79500
N736        N  0.60025382  0.96320045  0.72520517    -0.78600
C737        C  0.59528855  0.99775607  0.75190665     0.82200
N738        N  0.63702750  0.53269524  0.77640155    -0.78500
C739        C  0.68342047  0.53325045  0.77399121     0.82300
N740        N  0.68870164  0.00006349  0.74619476    -0.80200
C741        C  0.96681645  0.65009402  0.77406158     0.79700
N742        N  0.96735641  0.60424606  0.77646340    -0.78600
C743        C  0.00229065  0.59744838  0.75198373     0.82200
N744        N  0.53684898  0.63697422  0.72527731    -0.78500
C745        C  0.53519399  0.68230377  0.72192516     0.82300
N746        N  0.00000468  0.68856465  0.74626954    -0.80200
C747        C  0.81769508  0.85278039  0.72191613     0.79700
N748        N  0.86303716  0.89977234  0.72525837    -0.78600
C749        C  0.90256716  0.90473244  0.75194876     0.82200
N750        N  0.89576856  0.86299627  0.77642169    -0.78500
C751        C  0.84991158  0.81660357  0.77403219     0.82300
N752        N  0.81143188  0.81132484  0.74625549    -0.80200
loop_ 
_geom_bond_atom_site_label_1 
_geom_bond_atom_site_label_2 
_geom_bond_distance 
_geom_bond_site_symmetry_2 
_ccdc_geom_bond_type 
Zn1           O5   1.951       .  S
Zn1           O6   2.017       .  S
Zn1          O10   1.999       .  S
Zn1          O17   2.029       .  S
Zn2           O5   1.947       .  S
Zn2           O7   2.002       .  S
Zn2           O9   2.002       .  S
Zn2          O13   2.002       .  S
Zn3           O5   1.951       .  S
Zn3           O8   2.029       .  S
Zn3          O11   2.017       .  S
Zn3          O14   1.999       .  S
Zn4           O5   1.951       .  S
Zn4          O12   2.029       .  S
Zn4          O15   2.017       .  S
Zn4          O16   1.999       .  S
O6           C18   1.273       .  A
O7           C19   1.270       .  A
O8           C20   1.276       .  A
O9           C18   1.270       .  A
O10          C20   1.270       .  A
O11          C19   1.273       .  A
O12          C21   1.276       .  A
O13          C22   1.270       .  A
O14          C21   1.270       .  A
O15          C22   1.273       .  A
O16          C23   1.270       .  A
O17          C23   1.276       .  A
C18          C93   1.456       .  S
C19          C83   1.456       .  S
C20          C46   1.466       .  S
C21          C30   1.466       .  S
C22          C81   1.456       .  S
C23          C36   1.466       .  S
C24         C222   1.472       .  S
C24          N25   1.360       .  A
C24         N593   1.360       .  A
N25         C496   1.360       .  A
C26          C44   1.472       .  S
C26         N495   1.360       .  A
C26         N215   1.361   1_655  A
N27         C214   1.361   1_455  A
N27         C122   1.360   1_565  A
C28          C38   1.472       .  S
C28          N29   1.361       .  A
C28         N121   1.360   1_545  A
N29         C588   1.360   1_455  A
C30          N35   1.362       .  A
C30         N125   1.355   1_545  A
N31         C124   1.355   1_565  A
N31         C220   1.353   1_556  A
C32          C65   1.456       .  S
C32          N33   1.359       .  A
C32         N219   1.353   1_554  A
N33         C222   1.359       .  A
C34         C212   1.472       .  S
C34         N221   1.359   1_545  A
C34         N129   1.361   1_554  A
N35         C128   1.361       .  A
C36          N37   1.362       .  A
C36         N135   1.355       .  A
N37         C132   1.361       .  A
C38          N39   1.359       .  A
C38         N131   1.361   1_554  A
N39          C40   1.359       .  A
C40          C70   1.456       .  S
C40          N41   1.353   1_554  A
N41         C130   1.355       .  A
C42          C67   1.456       .  S
C42          N43   1.359       .  A
C42         N141   1.353   1_554  A
N43         C138   1.359   1_455  A
C44         N137   1.359   1_655  A
C44         N421   1.361       .  A
N45          C46   1.362       .  A
N45         C420   1.361       .  A
C46         N423   1.355       .  A
N47         C136   1.353       .  A
N47         C422   1.355   1_455  A
Zn48         O52   1.947       .  S
Zn48         O53   2.002       .  S
Zn48         O57   2.002       .  S
Zn48         O64   2.002       .  S
Zn49         O52   1.951       .  S
Zn49         O54   2.029       .  S
Zn49         O56   2.017       .  S
Zn49         O60   1.999       .  S
Zn50         O52   1.951       .  S
Zn50         O55   2.017       .  S
Zn50         O58   1.999       .  S
Zn50         O61   2.029       .  S
Zn51         O52   1.951       .  S
Zn51         O59   1.999       .  S
Zn51         O62   2.029       .  S
Zn51         O63   2.017       .  S
O53          C65   1.270       .  A
O54          C66   1.276       .  A
O55          C67   1.273       .  A
O56          C65   1.273       .  A
O57          C67   1.270       .  A
O58          C66   1.270       .  A
O59          C68   1.270       .  A
O60          C69   1.270       .  A
O61          C68   1.276       .  A
O62          C69   1.276       .  A
O63          C70   1.273       .  A
O64          C70   1.270       .  A
C66          C77   1.466       .  S
C68          C87   1.465       .  S
C69          C89   1.466       .  S
C71         C267   1.472       .  S
C71          N76   1.360   1_565  A
C71         N636   1.360   1_455  A
N72          C73   1.361       .  A
N72         C635   1.360       .  A
C73          C91   1.472       .  S
C73          N74   1.360       .  A
N74         C639   1.361       .  A
C75         C461   1.472       .  S
C75          N76   1.360       .  A
C75         N638   1.361   1_455  A
C77          N78   1.362       .  A
C77          N82   1.355       .  A
N78          C79   1.361       .  A
C79         C259   1.472       .  S
C79         N268   1.359       .  A
N80          C81   1.359       .  A
N80         C267   1.359   1_545  A
C81         N270   1.353       .  A
N82         C269   1.353       .  A
C83          N84   1.358       .  A
C83          N88   1.353       .  A
N84          C85   1.359       .  A
C85         C451   1.472       .  S
C85         N462   1.361       .  A
N86          C87   1.362       .  A
N86         C461   1.361       .  A
C87         N464   1.355   1_455  A
N88         C463   1.355       .  A
C89          N90   1.362       .  A
C89          N94   1.355       .  A
N90          C91   1.361       .  A
C91          N92   1.359       .  A
N92          C93   1.359       .  A
C93          N94   1.353       .  A
Zn95         O99   1.951       .  S
Zn95        O100   2.017       .  S
Zn95        O104   1.999       .  S
Zn95        O111   2.029       .  S
Zn96         O99   1.947       .  S
Zn96        O101   2.002       .  S
Zn96        O103   2.002       .  S
Zn96        O107   2.002       .  S
Zn97         O99   1.951       .  S
Zn97        O102   2.029       .  S
Zn97        O105   2.017       .  S
Zn97        O108   1.999       .  S
Zn98         O99   1.951       .  S
Zn98        O106   2.029       .  S
Zn98        O109   2.017       .  S
Zn98        O110   1.999       .  S
O100        C112   1.273       .  A
O101        C113   1.270       .  A
O102        C114   1.276       .  A
O103        C112   1.270       .  A
O104        C114   1.270       .  A
O105        C113   1.273       .  A
O106        C115   1.276       .  A
O107        C116   1.270       .  A
O108        C115   1.270       .  A
O109        C116   1.273       .  A
O110        C117   1.270       .  A
O111        C117   1.276       .  A
C112        C187   1.456       .  S
C113        C177   1.455       .  S
C114        C140   1.466       .  S
C115        C124   1.466       .  S
C116        C175   1.455       .  S
C117        C130   1.466       .  S
C118        C316   1.472       .  S
C118        N119   1.360       .  A
C118        N687   1.360       .  A
N119        C402   1.360       .  A
C120        C138   1.472       .  S
C120        N401   1.360       .  A
C120        N309   1.361   1_655  A
N121        C308   1.361   1_455  A
C122        C132   1.473       .  S
C122        N123   1.360       .  A
N123        C682   1.360   1_455  A
C124        N129   1.362       .  A
N125        C314   1.353       .  A
C126        C159   1.456       .  S
C126        N313   1.353       .  A
C126        N127   1.359       .  A
N127        C316   1.359       .  A
C128        C306   1.472       .  S
C128        N315   1.359   1_545  A
C130        N131   1.362       .  A
C132        N133   1.359       .  A
N133        C134   1.359       .  A
C134        C164   1.456       .  S
C134        N135   1.353       .  A
C136        C161   1.456       .  S
C136        N137   1.359       .  A
C138        N515   1.361   1_554  A
N139        C514   1.361   1_556  A
N139        C140   1.362       .  A
C140        N517   1.355       .  A
N141        C516   1.355   1_455  A
Zn142       O146   1.947       .  S
Zn142       O147   2.002       .  S
Zn142       O151   2.002       .  S
Zn142       O158   2.002       .  S
Zn143       O146   1.951       .  S
Zn143       O148   2.029       .  S
Zn143       O150   2.017       .  S
Zn143       O154   1.999       .  S
Zn144       O146   1.951       .  S
Zn144       O149   2.017       .  S
Zn144       O152   1.999       .  S
Zn144       O155   2.029       .  S
Zn145       O146   1.951       .  S
Zn145       O153   1.999       .  S
Zn145       O156   2.029       .  S
Zn145       O157   2.017       .  S
O147        C159   1.270       .  A
O148        C160   1.276       .  A
O149        C161   1.273       .  A
O150        C159   1.273       .  A
O151        C161   1.270       .  A
O152        C160   1.270       .  A
O153        C162   1.270       .  A
O154        C163   1.270       .  A
O155        C162   1.276       .  A
O156        C163   1.276       .  A
O157        C164   1.273       .  A
O158        C164   1.270       .  A
C160        C171   1.466       .  S
C162        C181   1.466       .  S
C163        C183   1.466       .  S
C165        C361   1.472       .  S
C165        N730   1.360   1_455  A
C165        N170   1.360   1_565  A
N166        C729   1.360       .  A
N166        C167   1.360       .  A
C167        C185   1.472       .  S
C167        N168   1.360       .  A
N168        C733   1.361       .  A
C169        C555   1.472       .  S
C169        N732   1.361   1_455  A
C169        N170   1.360       .  A
C171        N172   1.362       .  A
C171        N176   1.355       .  A
N172        C173   1.361       .  A
C173        C353   1.472       .  S
C173        N362   1.359       .  A
N174        C361   1.359   1_545  A
N174        C175   1.359       .  A
C175        N364   1.353       .  A
N176        C363   1.353       .  A
C177        N178   1.359       .  A
C177        N182   1.353       .  A
N178        C179   1.359       .  A
C179        C545   1.472       .  S
C179        N556   1.361       .  A
N180        C555   1.361       .  A
N180        C181   1.362       .  A
C181        N558   1.355   1_455  A
N182        C557   1.355       .  A
C183        N184   1.362       .  A
C183        N188   1.355       .  A
N184        C185   1.361       .  A
C185        N186   1.359       .  A
N186        C187   1.359       .  A
C187        N188   1.353       .  A
Zn189       O193   1.951       .  S
Zn189       O194   2.017       .  S
Zn189       O198   1.999       .  S
Zn189       O205   2.029       .  S
Zn190       O193   1.947       .  S
Zn190       O195   2.002       .  S
Zn190       O197   2.002       .  S
Zn190       O201   2.002       .  S
Zn191       O193   1.951       .  S
Zn191       O196   2.029       .  S
Zn191       O199   2.017       .  S
Zn191       O202   1.999       .  S
Zn192       O193   1.951       .  S
Zn192       O200   2.029       .  S
Zn192       O203   2.017       .  S
Zn192       O204   1.999       .  S
O194        C206   1.273       .  A
O195        C207   1.270       .  A
O196        C208   1.276       .  A
O197        C206   1.270       .  A
O198        C208   1.270       .  A
O199        C207   1.273       .  A
O200        C209   1.276       .  A
O201        C210   1.270       .  A
O202        C209   1.270       .  A
O203        C210   1.273       .  A
O204        C211   1.270       .  A
O205        C211   1.276       .  A
C206        C281   1.456       .  S
C207        C271   1.456       .  S
C208        C234   1.466       .  S
C209        C218   1.466       .  S
C210        C269   1.456       .  S
C211        C224   1.466       .  S
C212        N213   1.360   1_545  A
C212        N405   1.360       .  A
N213        C684   1.360       .  A
C214        C232   1.472       .  S
C214        N683   1.360       .  A
N215        C310   1.360       .  A
C216        C226   1.472       .  S
C216        N309   1.360       .  A
C216        N217   1.361       .  A
N217        C400   1.360   1_455  A
C218        N313   1.355       .  A
C218        N223   1.362       .  A
N219        C312   1.355       .  A
C220        C253   1.456       .  S
C220        N221   1.359       .  A
C222        N317   1.361   1_554  A
N223        C316   1.361       .  A
C224        N225   1.362       .  A
C224        N323   1.355       .  A
N225        C320   1.361       .  A
C226        N319   1.361   1_554  A
C226        N227   1.359       .  A
N227        C228   1.359       .  A
C228        C258   1.455       .  S
C228        N229   1.353   1_554  A
N229        C318   1.355       .  A
C230        C255   1.455       .  S
C230        N231   1.359       .  A
C230        N329   1.353   1_554  A
N231        C326   1.359   1_455  A
C232        N325   1.359   1_655  A
C232        N609   1.361       .  A
N233        C608   1.361       .  A
N233        C234   1.362       .  A
C234        N611   1.355       .  A
N235        C324   1.353       .  A
N235        C610   1.355   1_455  A
Zn236       O240   1.947       .  S
Zn236       O241   2.002       .  S
Zn236       O245   2.002       .  S
Zn236       O252   2.002       .  S
Zn237       O240   1.951       .  S
Zn237       O242   2.029       .  S
Zn237       O244   2.017       .  S
Zn237       O248   1.999       .  S
Zn238       O240   1.951       .  S
Zn238       O243   2.017       .  S
Zn238       O246   1.999       .  S
Zn238       O249   2.029       .  S
Zn239       O240   1.951       .  S
Zn239       O247   1.999       .  S
Zn239       O250   2.029       .  S
Zn239       O251   2.017       .  S
O241        C253   1.270       .  A
O242        C254   1.276       .  A
O243        C255   1.273       .  A
O244        C253   1.273       .  A
O245        C255   1.270       .  A
O246        C254   1.270       .  A
O247        C256   1.270       .  A
O248        C257   1.270       .  A
O249        C256   1.276       .  A
O250        C257   1.276       .  A
O251        C258   1.273       .  A
O252        C258   1.270       .  A
C254        C265   1.466       .  S
C256        C275   1.466       .  S
C257        C277   1.466       .  S
C259        N448   1.360   1_455  A
C259        N264   1.360       .  A
N260        C447   1.360       .  A
N260        C261   1.361       .  A
C261        C279   1.472       .  S
C261        N262   1.360   1_565  A
N262        C451   1.361       .  A
C263        C649   1.472       .  S
C263        N450   1.361   1_455  A
C263        N264   1.360       .  A
C265        N266   1.362       .  A
C265        N270   1.355   1_565  A
N266        C267   1.361       .  A
N268        C269   1.359       .  A
C271        N272   1.359       .  A
C271        N276   1.353       .  A
N272        C273   1.359       .  A
C273        C639   1.472       .  S
C273        N650   1.361       .  A
N274        C649   1.361       .  A
N274        C275   1.362       .  A
C275        N652   1.355       .  A
N276        C651   1.355       .  A
C277        N278   1.362       .  A
C277        N282   1.355       .  A
N278        C279   1.361       .  A
C279        N280   1.359       .  A
N280        C281   1.359       .  A
C281        N282   1.353       .  A
Zn283       O287   1.951       .  S
Zn283       O288   2.017       .  S
Zn283       O292   1.999       .  S
Zn283       O299   2.029       .  S
Zn284       O287   1.947       .  S
Zn284       O289   2.002       .  S
Zn284       O291   2.002       .  S
Zn284       O295   2.002       .  S
Zn285       O287   1.951       .  S
Zn285       O290   2.029       .  S
Zn285       O293   2.017       .  S
Zn285       O296   1.999       .  S
Zn286       O287   1.951       .  S
Zn286       O294   2.029       .  S
Zn286       O297   2.017       .  S
Zn286       O298   1.999       .  S
O288        C300   1.273       .  A
O289        C301   1.270       .  A
O290        C302   1.276       .  A
O291        C300   1.270       .  A
O292        C302   1.270       .  A
O293        C301   1.273       .  A
O294        C303   1.276       .  A
O295        C304   1.270       .  A
O296        C303   1.270       .  A
O297        C304   1.273       .  A
O298        C305   1.270       .  A
O299        C305   1.276       .  A
C300        C375   1.456       .  S
C301        C365   1.456       .  S
C302        C328   1.466       .  S
C303        C312   1.466       .  S
C304        C363   1.455       .  S
C305        C318   1.466       .  S
C306        N307   1.360   1_545  A
C306        N499   1.360       .  A
N307        C590   1.360       .  A
C308        C326   1.472       .  S
C308        N589   1.360       .  A
C310        C320   1.472       .  S
C310        N311   1.360       .  A
N311        C494   1.360   1_455  A
C312        N317   1.362       .  A
C314        C347   1.456       .  S
C314        N315   1.358       .  A
C318        N319   1.362       .  A
C320        N321   1.359       .  A
N321        C322   1.359       .  A
C322        C352   1.455       .  S
C322        N323   1.353       .  A
C324        C349   1.455       .  S
C324        N325   1.359       .  A
C326        N703   1.361   1_554  A
N327        C702   1.361   1_556  A
N327        C328   1.362       .  A
C328        N705   1.355       .  A
N329        C704   1.355   1_455  A
Zn330       O334   1.947       .  S
Zn330       O335   2.002       .  S
Zn330       O339   2.002       .  S
Zn330       O346   2.002       .  S
Zn331       O334   1.951       .  S
Zn331       O336   2.029       .  S
Zn331       O338   2.017       .  S
Zn331       O342   1.999       .  S
Zn332       O334   1.951       .  S
Zn332       O337   2.017       .  S
Zn332       O340   1.999       .  S
Zn332       O343   2.029       .  S
Zn333       O334   1.951       .  S
Zn333       O341   1.999       .  S
Zn333       O344   2.029       .  S
Zn333       O345   2.017       .  S
O335        C347   1.270       .  A
O336        C348   1.276       .  A
O337        C349   1.273       .  A
O338        C347   1.273       .  A
O339        C349   1.270       .  A
O340        C348   1.270       .  A
O341        C350   1.270       .  A
O342        C351   1.270       .  A
O343        C350   1.276       .  A
O344        C351   1.276       .  A
O345        C352   1.273       .  A
O346        C352   1.270       .  A
C348        C359   1.466       .  S
C350        C369   1.466       .  S
C351        C371   1.466       .  S
C353        N542   1.360   1_455  A
C353        N358   1.360       .  A
N354        C541   1.360       .  A
N354        C355   1.361       .  A
C355        C373   1.472       .  S
C355        N356   1.360   1_565  A
N356        C545   1.361       .  A
C357        C743   1.472       .  S
C357        N544   1.361   1_455  A
C357        N358   1.360       .  A
C359        N360   1.362       .  A
C359        N364   1.355   1_565  A
N360        C361   1.361       .  A
N362        C363   1.359       .  A
C365        N366   1.359       .  A
C365        N370   1.353       .  A
N366        C367   1.359       .  A
C367        C733   1.472       .  S
C367        N744   1.361       .  A
N368        C743   1.361       .  A
N368        C369   1.362       .  A
C369        N746   1.355       .  A
N370        C745   1.355       .  A
C371        N372   1.362       .  A
C371        N376   1.355       .  A
N372        C373   1.361       .  A
C373        N374   1.359       .  A
N374        C375   1.359       .  A
C375        N376   1.353       .  A
Zn377       O381   1.951       .  S
Zn377       O382   2.017       .  S
Zn377       O386   1.999       .  S
Zn377       O393   2.029       .  S
Zn378       O381   1.947       .  S
Zn378       O383   2.002       .  S
Zn378       O385   2.002       .  S
Zn378       O389   2.002       .  S
Zn379       O381   1.951       .  S
Zn379       O384   2.029       .  S
Zn379       O387   2.017       .  S
Zn379       O390   1.999       .  S
Zn380       O381   1.951       .  S
Zn380       O388   2.029       .  S
Zn380       O391   2.017       .  S
Zn380       O392   1.999       .  S
O382        C394   1.273       .  A
O383        C395   1.270       .  A
O384        C396   1.276       .  A
O385        C394   1.270       .  A
O386        C396   1.270       .  A
O387        C395   1.273       .  A
O388        C397   1.276       .  A
O389        C398   1.270       .  A
O390        C397   1.270       .  A
O391        C398   1.273       .  A
O392        C399   1.270       .  A
O393        C399   1.276       .  A
C394        C469   1.456       .  S
C395        C459   1.456       .  S
C396        C422   1.466       .  S
C397        C406   1.466       .  S
C398        C457   1.456       .  S
C399        C412   1.466       .  S
C400        C598   1.472       .  S
C400        N401   1.360       .  A
C402        C420   1.472       .  S
C402        N591   1.361       .  A
N403        C590   1.361       .  A
N403        C498   1.360   1_565  A
C404        C414   1.472       .  S
C404        N497   1.360   1_545  A
C404        N405   1.360       .  A
C406        N501   1.355   1_545  A
C406        N411   1.362       .  A
N407        C500   1.355   1_565  A
N407        C596   1.353   1_556  A
C408        C441   1.456       .  S
C408        N595   1.353   1_554  A
C408        N409   1.359       .  A
N409        C598   1.359       .  A
C410        C588   1.472       .  S
C410        N597   1.359   1_545  A
C410        N505   1.361   1_554  A
N411        C504   1.361       .  A
C412        N413   1.362       .  A
C412        N511   1.355       .  A
N413        C508   1.361       .  A
C414        N507   1.361   1_554  A
C414        N415   1.359       .  A
N415        C416   1.359       .  A
C416        C446   1.456       .  S
C416        N417   1.353   1_554  A
N417        C506   1.355       .  A
C418        C443   1.456       .  S
C418        N419   1.359       .  A
C418        N517   1.353   1_554  A
N419        C514   1.359       .  A
C420        N513   1.359       .  A
N421        C422   1.362       .  A
N423        C512   1.353       .  A
Zn424       O428   1.947       .  S
Zn424       O429   2.002       .  S
Zn424       O433   2.002       .  S
Zn424       O440   2.002       .  S
Zn425       O428   1.951       .  S
Zn425       O430   2.029       .  S
Zn425       O432   2.017       .  S
Zn425       O436   1.999       .  S
Zn426       O428   1.951       .  S
Zn426       O431   2.017       .  S
Zn426       O434   1.999       .  S
Zn426       O437   2.029       .  S
Zn427       O428   1.951       .  S
Zn427       O435   1.999       .  S
Zn427       O438   2.029       .  S
Zn427       O439   2.017       .  S
O429        C441   1.270       .  A
O430        C442   1.276       .  A
O431        C443   1.273       .  A
O432        C441   1.273       .  A
O433        C443   1.270       .  A
O434        C442   1.270       .  A
O435        C444   1.270       .  A
O436        C445   1.270       .  A
O437        C444   1.276       .  A
O438        C445   1.276       .  A
O439        C446   1.273       .  A
O440        C446   1.270       .  A
C442        C453   1.466       .  S
C444        C463   1.466       .  S
C445        C465   1.466       .  S
C447        C643   1.472       .  S
C447        N452   1.360   1_565  A
N448        C449   1.360       .  A
C449        C467   1.472       .  S
C449        N450   1.360       .  A
C451        N452   1.360       .  A
C453        N454   1.362       .  A
C453        N458   1.355       .  A
N454        C455   1.361       .  A
C455        C635   1.472       .  S
C455        N644   1.359       .  A
N456        C643   1.359   1_545  A
N456        C457   1.359       .  A
C457        N646   1.353       .  A
N458        C645   1.353       .  A
C459        N460   1.359       .  A
C459        N464   1.353       .  A
N460        C461   1.359   1_655  A
N462        C463   1.362       .  A
C465        N466   1.362       .  A
C465        N470   1.355       .  A
N466        C467   1.361       .  A
C467        N468   1.359       .  A
N468        C469   1.359       .  A
C469        N470   1.353       .  A
Zn471       O475   1.951       .  S
Zn471       O476   2.017       .  S
Zn471       O480   1.999       .  S
Zn471       O487   2.029       .  S
Zn472       O475   1.947       .  S
Zn472       O477   2.002       .  S
Zn472       O479   2.002       .  S
Zn472       O483   2.002       .  S
Zn473       O475   1.951       .  S
Zn473       O478   2.029       .  S
Zn473       O481   2.017       .  S
Zn473       O484   1.999       .  S
Zn474       O475   1.951       .  S
Zn474       O482   2.029       .  S
Zn474       O485   2.017       .  S
Zn474       O486   1.999       .  S
O476        C488   1.273       .  A
O477        C489   1.270       .  A
O478        C490   1.276       .  A
O479        C488   1.270       .  A
O480        C490   1.270       .  A
O481        C489   1.273       .  A
O482        C491   1.276       .  A
O483        C492   1.270       .  A
O484        C491   1.270       .  A
O485        C492   1.273       .  A
O486        C493   1.270       .  A
O487        C493   1.276       .  A
C488        C563   1.456       .  S
C489        C553   1.456       .  S
C490        C516   1.466       .  S
C491        C500   1.466       .  S
C492        C551   1.456       .  S
C493        C506   1.466       .  S
C494        C692   1.472       .  S
C494        N495   1.360       .  A
C496        C514   1.472       .  S
C496        N685   1.361       .  A
N497        C684   1.361       .  A
C498        C508   1.473       .  S
C498        N499   1.360       .  A
C500        N505   1.362       .  A
N501        C690   1.353       .  A
C502        C535   1.456       .  S
C502        N689   1.353       .  A
C502        N503   1.358       .  A
N503        C692   1.359       .  A
C504        C682   1.472       .  S
C504        N691   1.359   1_545  A
C506        N507   1.362       .  A
C508        N509   1.359       .  A
N509        C510   1.359       .  A
C510        C540   1.456       .  S
C510        N511   1.353       .  A
C512        C537   1.456       .  S
C512        N513   1.359       .  A
N515        C516   1.362       .  A
Zn518       O522   1.947       .  S
Zn518       O523   2.002       .  S
Zn518       O527   2.002       .  S
Zn518       O534   2.002       .  S
Zn519       O522   1.951       .  S
Zn519       O524   2.029       .  S
Zn519       O526   2.017       .  S
Zn519       O530   1.999       .  S
Zn520       O522   1.951       .  S
Zn520       O525   2.017       .  S
Zn520       O528   1.999       .  S
Zn520       O531   2.029       .  S
Zn521       O522   1.951       .  S
Zn521       O529   1.999       .  S
Zn521       O532   2.029       .  S
Zn521       O533   2.017       .  S
O523        C535   1.270       .  A
O524        C536   1.276       .  A
O525        C537   1.273       .  A
O526        C535   1.273       .  A
O527        C537   1.270       .  A
O528        C536   1.270       .  A
O529        C538   1.270       .  A
O530        C539   1.270       .  A
O531        C538   1.276       .  A
O532        C539   1.276       .  A
O533        C540   1.273       .  A
O534        C540   1.270       .  A
C536        C547   1.466       .  S
C538        C557   1.466       .  S
C539        C559   1.466       .  S
C541        C737   1.472       .  S
C541        N546   1.360   1_565  A
N542        C543   1.360       .  A
C543        C561   1.472       .  S
C543        N544   1.360       .  A
C545        N546   1.360       .  A
C547        N548   1.362       .  A
C547        N552   1.355       .  A
N548        C549   1.361       .  A
C549        C729   1.472       .  S
C549        N738   1.359       .  A
N550        C737   1.359   1_545  A
N550        C551   1.358       .  A
C551        N740   1.353       .  A
N552        C739   1.353       .  A
C553        N554   1.359       .  A
C553        N558   1.353       .  A
N554        C555   1.359   1_655  A
N556        C557   1.362       .  A
C559        N560   1.362       .  A
C559        N564   1.355       .  A
N560        C561   1.361       .  A
C561        N562   1.359       .  A
N562        C563   1.359       .  A
C563        N564   1.353       .  A
Zn565       O569   1.951       .  S
Zn565       O570   2.017       .  S
Zn565       O574   1.999       .  S
Zn565       O581   2.029       .  S
Zn566       O569   1.947       .  S
Zn566       O571   2.002       .  S
Zn566       O573   2.002       .  S
Zn566       O577   2.002       .  S
Zn567       O569   1.951       .  S
Zn567       O572   2.029       .  S
Zn567       O575   2.017       .  S
Zn567       O578   1.999       .  S
Zn568       O569   1.951       .  S
Zn568       O576   2.029       .  S
Zn568       O579   2.017       .  S
Zn568       O580   1.999       .  S
O570        C582   1.273       .  A
O571        C583   1.270       .  A
O572        C584   1.276       .  A
O573        C582   1.270       .  A
O574        C584   1.270       .  A
O575        C583   1.273       .  A
O576        C585   1.276       .  A
O577        C586   1.270       .  A
O578        C585   1.270       .  A
O579        C586   1.273       .  A
O580        C587   1.270       .  A
O581        C587   1.276       .  A
C582        C657   1.456       .  S
C583        C647   1.455       .  S
C584        C610   1.466       .  S
C585        C594   1.466       .  S
C586        C645   1.456       .  S
C587        C600   1.466       .  S
C588        N589   1.360   1_545  A
C590        C608   1.472       .  S
N591        C686   1.360       .  A
C592        C602   1.472       .  S
C592        N685   1.360       .  A
C592        N593   1.361       .  A
C594        N689   1.355       .  A
C594        N599   1.362       .  A
N595        C688   1.355       .  A
C596        C629   1.456       .  S
C596        N597   1.359       .  A
C598        N693   1.361   1_554  A
N599        C692   1.361       .  A
C600        N601   1.362       .  A
C600        N699   1.355       .  A
N601        C696   1.361       .  A
C602        N695   1.361   1_554  A
C602        N603   1.359       .  A
N603        C604   1.359       .  A
C604        C634   1.455       .  S
C604        N605   1.353   1_554  A
N605        C694   1.355       .  A
C606        C631   1.455       .  S
C606        N607   1.359       .  A
C606        N705   1.353   1_554  A
N607        C702   1.359       .  A
C608        N701   1.359       .  A
N609        C610   1.362       .  A
N611        C700   1.353       .  A
Zn612       O616   1.947       .  S
Zn612       O617   2.002       .  S
Zn612       O621   2.002       .  S
Zn612       O628   2.002       .  S
Zn613       O616   1.951       .  S
Zn613       O618   2.029       .  S
Zn613       O620   2.017       .  S
Zn613       O624   1.999       .  S
Zn614       O616   1.951       .  S
Zn614       O619   2.017       .  S
Zn614       O622   1.999       .  S
Zn614       O625   2.029       .  S
Zn615       O616   1.951       .  S
Zn615       O623   1.999       .  S
Zn615       O626   2.029       .  S
Zn615       O627   2.017       .  S
O617        C629   1.270       .  A
O618        C630   1.276       .  A
O619        C631   1.273       .  A
O620        C629   1.273       .  A
O621        C631   1.270       .  A
O622        C630   1.270       .  A
O623        C632   1.270       .  A
O624        C633   1.270       .  A
O625        C632   1.276       .  A
O626        C633   1.276       .  A
O627        C634   1.273       .  A
O628        C634   1.270       .  A
C630        C641   1.466       .  S
C632        C651   1.466       .  S
C633        C653   1.466       .  S
C635        N640   1.360       .  A
N636        C637   1.361       .  A
C637        C655   1.472       .  S
C637        N638   1.360   1_565  A
C639        N640   1.360       .  A
C641        N642   1.362       .  A
C641        N646   1.355   1_565  A
N642        C643   1.361       .  A
N644        C645   1.359       .  A
C647        N648   1.359       .  A
C647        N652   1.353   1_655  A
N648        C649   1.359   1_655  A
N650        C651   1.362       .  A
C653        N654   1.362       .  A
C653        N658   1.355       .  A
N654        C655   1.361       .  A
C655        N656   1.359       .  A
N656        C657   1.359       .  A
C657        N658   1.353       .  A
Zn659       O663   1.951       .  S
Zn659       O664   2.017       .  S
Zn659       O668   1.999       .  S
Zn659       O675   2.029       .  S
Zn660       O663   1.947       .  S
Zn660       O665   2.002       .  S
Zn660       O667   2.002       .  S
Zn660       O671   2.002       .  S
Zn661       O663   1.951       .  S
Zn661       O666   2.029       .  S
Zn661       O669   2.017       .  S
Zn661       O672   1.999       .  S
Zn662       O663   1.951       .  S
Zn662       O670   2.029       .  S
Zn662       O673   2.017       .  S
Zn662       O674   1.999       .  S
O664        C676   1.273       .  A
O665        C677   1.270       .  A
O666        C678   1.276       .  A
O667        C676   1.270       .  A
O668        C678   1.270       .  A
O669        C677   1.273       .  A
O670        C679   1.276       .  A
O671        C680   1.270       .  A
O672        C679   1.270       .  A
O673        C680   1.273       .  A
O674        C681   1.270       .  A
O675        C681   1.276       .  A
C676        C751   1.456       .  S
C677        C741   1.456       .  S
C678        C704   1.466       .  S
C679        C688   1.466       .  S
C680        C739   1.455       .  S
C681        C694   1.466       .  S
C682        N683   1.360   1_545  A
C684        C702   1.472       .  S
C686        C696   1.472       .  S
C686        N687   1.360       .  A
C688        N693   1.362       .  A
C690        C723   1.456       .  S
C690        N691   1.358       .  A
C694        N695   1.362       .  A
C696        N697   1.359       .  A
N697        C698   1.359       .  A
C698        C728   1.455       .  S
C698        N699   1.353       .  A
C700        C725   1.455       .  S
C700        N701   1.359       .  A
N703        C704   1.362       .  A
Zn706       O710   1.947       .  S
Zn706       O711   2.002       .  S
Zn706       O715   2.002       .  S
Zn706       O722   2.002       .  S
Zn707       O710   1.951       .  S
Zn707       O712   2.029       .  S
Zn707       O714   2.017       .  S
Zn707       O718   1.999       .  S
Zn708       O710   1.951       .  S
Zn708       O713   2.017       .  S
Zn708       O716   1.999       .  S
Zn708       O719   2.029       .  S
Zn709       O710   1.951       .  S
Zn709       O717   1.999       .  S
Zn709       O720   2.029       .  S
Zn709       O721   2.017       .  S
O711        C723   1.270       .  A
O712        C724   1.276       .  A
O713        C725   1.273       .  A
O714        C723   1.273       .  A
O715        C725   1.270       .  A
O716        C724   1.270       .  A
O717        C726   1.270       .  A
O718        C727   1.270       .  A
O719        C726   1.276       .  A
O720        C727   1.276       .  A
O721        C728   1.273       .  A
O722        C728   1.270       .  A
C724        C735   1.466       .  S
C726        C745   1.466       .  S
C727        C747   1.466       .  S
C729        N734   1.360       .  A
N730        C731   1.360       .  A
C731        C749   1.473       .  S
C731        N732   1.360   1_565  A
C733        N734   1.360       .  A
C735        N736   1.362       .  A
C735        N740   1.355   1_565  A
N736        C737   1.361       .  A
N738        C739   1.359       .  A
C741        N742   1.359       .  A
C741        N746   1.353   1_655  A
N742        C743   1.359   1_655  A
N744        C745   1.362       .  A
C747        N748   1.362       .  A
C747        N752   1.355       .  A
N748        C749   1.361       .  A
C749        N750   1.359       .  A
N750        C751   1.359       .  A
C751        N752   1.353       .  A
