geometry optimzed in LAMMPS
_audit_creation_date              2020-12-01 
_audit_creation_method            'lammps2cif' 
_symmetry_space_group_name_H-M    'P1' 
_symmetry_Int_Tables_number       1 
_symmetry_cell_setting            triclinic 
loop_ 
_symmetry_equiv_pos_as_xyz 
  x,y,z 
_cell_length_a                    89.17529863 
_cell_length_b                    89.05031398131923 
_cell_length_c                    89.3868635542684 
_cell_angle_alpha                 89.97759214073933 
_cell_angle_beta                  89.951782484295 
_cell_angle_gamma                 89.7567812223763 
loop_ 
_atom_site_label 
_atom_site_type_symbol 
_atom_site_fract_x 
_atom_site_fract_y 
_atom_site_fract_z 
_atom_site_charge 
N1          N  0.20119729  0.52989257  0.17949954    -0.27300
N2          N  0.19001415  0.52231492  0.17354243    -0.35200
C3          C  0.18008779  0.53186531  0.16749702     0.01000
C4          C  0.18518925  0.54634959  0.16958238     0.07100
C5          C  0.19869086  0.54468374  0.17724237    -0.06000
H6          H  0.17019597  0.52838702  0.16144597     0.07700
H7          H  0.20617267  0.55351618  0.18079803     0.08900
Cu8        Cu  0.18913219  0.49936130  0.17265255     0.44200
Cu9        Cu  0.21886763  0.51875126  0.19021250     0.42000
Cu10       Cu  0.21477867  0.47679643  0.19259809     0.43900
N11         N  0.18927219  0.47641168  0.17142636    -0.34700
N12         N  0.19862046  0.46764952  0.17884008    -0.28900
C13         C  0.19551882  0.45321279  0.17557247    -0.05000
C14         C  0.18351653  0.45307360  0.16569931     0.07200
C15         C  0.17998750  0.46799241  0.16328553     0.01000
H16         H  0.20136625  0.44361538  0.18020809     0.08600
H17         H  0.17132891  0.47250538  0.15608669     0.07700
N18         N  0.23081127  0.48946017  0.20347368    -0.36100
N19         N  0.23290772  0.50412577  0.20209680    -0.28300
C20         C  0.24470238  0.50807811  0.21062204    -0.03600
C21         C  0.25004858  0.49537035  0.21781971     0.05000
C22         C  0.24096105  0.48383104  0.21304763     0.03100
H23         H  0.24862509  0.51946884  0.21203795     0.08200
H24         H  0.24159843  0.47215557  0.21635539     0.07100
N25         N  0.42432925  0.23737984  0.18503702    -0.27300
N26         N  0.43262608  0.22623445  0.17980798    -0.35200
C27         C  0.42376284  0.21618498  0.17304214     0.01000
C28         C  0.40911168  0.22125839  0.17387742     0.07100
C29         C  0.40987465  0.23478920  0.18152817    -0.06000
H30         H  0.42781441  0.20630450  0.16724391     0.07700
H31         H  0.40066892  0.24228523  0.18416640     0.08900
Cu32       Cu  0.45571803  0.22608440  0.18017329     0.44200
Cu33       Cu  0.43362577  0.25561865  0.19616750     0.42000
Cu34       Cu  0.47360700  0.26100167  0.19016356     0.43900
N35         N  0.47843560  0.22980584  0.17848883    -0.34700
N36         N  0.48491470  0.24279074  0.18140910    -0.28900
C37         C  0.49966356  0.24164339  0.17854149    -0.05000
C38         C  0.50256921  0.22718489  0.17368913     0.07200
C39         C  0.48886196  0.22000192  0.17377125     0.01000
H40         H  0.50765758  0.25062132  0.18003774     0.08600
H41         H  0.48652845  0.20862682  0.17024908     0.07700
N42         N  0.46066334  0.27456532  0.20373233    -0.36100
N43         N  0.44632826  0.27212749  0.20661018    -0.28300
C44         C  0.44187641  0.28151081  0.21754866    -0.03600
C45         C  0.45394010  0.29036276  0.22158283     0.05000
C46         C  0.46564090  0.28569909  0.21254893     0.03100
H47         H  0.43073900  0.28172105  0.22235298     0.08200
H48         H  0.47714018  0.28950999  0.21294550     0.07100
N49         N  0.18750260  0.24482780  0.41817952    -0.27300
N50         N  0.17969109  0.23549225  0.42656165    -0.35200
C51         C  0.17248719  0.22574084  0.41767453     0.01000
C52         C  0.17590156  0.22916393  0.40294461     0.07100
C53         C  0.18538607  0.24140672  0.40369492    -0.06000
H54         H  0.16532667  0.21682046  0.42167365     0.07700
H55         H  0.19078201  0.24708471  0.39445625     0.08900
Cu56       Cu  0.17973579  0.23638654  0.44965204     0.44200
Cu57       Cu  0.20167532  0.26068293  0.42715011     0.42000
Cu58       Cu  0.20545279  0.26196510  0.46801783     0.43900
N59         N  0.18133759  0.23890637  0.47256935    -0.34700
N60         N  0.19089210  0.24784879  0.47947872    -0.28900
C61         C  0.18890077  0.24648308  0.49437330    -0.05000
C62         C  0.17739349  0.23634849  0.49685131     0.07200
C63         C  0.17292722  0.23180479  0.48277093     0.01000
H64         H  0.19507917  0.25268903  0.50272737     0.08600
H65         H  0.16422603  0.22380937  0.48008392     0.07700
N66         N  0.21788205  0.27491765  0.45316757    -0.36100
N67         N  0.21656239  0.27424192  0.43844406    -0.28300
C68         C  0.22658252  0.28350755  0.43212807    -0.03600
C69         C  0.23453588  0.29049163  0.44338755     0.05000
C70         C  0.22869313  0.28481927  0.45659117     0.03100
H71         H  0.22792716  0.28503155  0.42019501     0.08200
H72         H  0.23229224  0.28738236  0.46785615     0.07100
N73         N  0.48889345  0.24204581  0.70150210    -0.27300
N74         N  0.47979069  0.23161239  0.70669349    -0.35200
C75         C  0.48790107  0.22057018  0.71299392     0.01000
C76         C  0.50294117  0.22418819  0.71188474     0.07100
C77         C  0.50315288  0.23794551  0.70452109    -0.06000
H78         H  0.48310961  0.21105141  0.71877208     0.07700
H79         H  0.51289242  0.24464159  0.70186968     0.08900
Cu80       Cu  0.45674879  0.23388684  0.70704728     0.44200
Cu81       Cu  0.48068007  0.26149991  0.69135266     0.42000
Cu82       Cu  0.44071729  0.27003186  0.69836236     0.43900
N83         N  0.43438240  0.23916735  0.71003456    -0.34700
N84         N  0.42851714  0.25264506  0.70784168    -0.28900
C85         C  0.41379997  0.25223830  0.71128108    -0.05000
C86         C  0.41031618  0.23772278  0.71559607     0.07200
C87         C  0.42361679  0.22979006  0.71468434     0.01000
H88         H  0.40612454  0.26160987  0.71014542     0.08600
H89         H  0.42537167  0.21804464  0.71727806     0.07700
N90         N  0.45444006  0.28223594  0.68408635    -0.36100
N91         N  0.46861666  0.27884528  0.68118674    -0.28300
C92         C  0.47337723  0.28742045  0.66975615    -0.03600
C93         C  0.46168693  0.29666289  0.66521369     0.05000
C94         C  0.44990241  0.29313695  0.67466209     0.03100
H95         H  0.48440400  0.28656427  0.66477121     0.08200
H96         H  0.43853650  0.29738748  0.67403961     0.07100
N97         N  0.20513473  0.47294913  0.71323029    -0.27300
N98         N  0.19405185  0.48055050  0.71955533    -0.35200
C99         C  0.18474456  0.47080365  0.72630814     0.01000
C100        C  0.19039318  0.45643960  0.72431299     0.07100
C101        C  0.20332615  0.45819979  0.71598273    -0.06000
H102        H  0.17463072  0.47392899  0.73225454     0.07700
H103        H  0.21059480  0.44939383  0.71179741     0.08900
Cu104      Cu  0.19242131  0.50388940  0.71887030     0.44200
Cu105      Cu  0.22145042  0.48302214  0.70018410     0.42000
Cu106      Cu  0.22080198  0.52400555  0.69787139     0.43900
N107        N  0.19393340  0.52722395  0.71813288    -0.34700
N108        N  0.20463650  0.53467874  0.71109438    -0.28900
C109        C  0.20243532  0.54954494  0.71320087    -0.05000
C110        C  0.18959908  0.55147223  0.72175932     0.07200
C111        C  0.18452757  0.53710154  0.72462869     0.01000
H112        H  0.20930651  0.55828803  0.70838274     0.08600
H113        H  0.17466444  0.53404744  0.73097584     0.07700
N114        N  0.23430051  0.51016211  0.68457935    -0.36100
N115        N  0.23482519  0.49535723  0.68579274    -0.28300
C116        C  0.24411440  0.48978992  0.67527936    -0.03600
C117        C  0.24955840  0.50160943  0.66687795     0.05000
C118        C  0.24309650  0.51435422  0.67307661     0.03100
H119        H  0.24607715  0.47794707  0.67335831     0.08200
H120        H  0.24441788  0.52581064  0.66927984     0.07100
N121        N  0.43334008  0.76712440  0.17899051    -0.27300
N122        N  0.44090182  0.77953543  0.17610212    -0.35200
C123        C  0.43161487  0.78968080  0.16984725     0.01000
C124        C  0.41754318  0.78331076  0.16858619     0.07100
C125        C  0.41907069  0.76899866  0.17449827    -0.06000
H126        H  0.43502603  0.80065464  0.16595963     0.07700
H127        H  0.41044897  0.76054737  0.17549678     0.08900
Cu128      Cu  0.46379053  0.78164725  0.17923979     0.44200
Cu129      Cu  0.44255522  0.74830681  0.18928593     0.42000
Cu130      Cu  0.48242130  0.74982894  0.19545957     0.43900
N131        N  0.48685965  0.77919396  0.18004325    -0.34700
N132        N  0.49361662  0.76720581  0.18558171    -0.28900
C133        C  0.50846618  0.76839158  0.18355142    -0.05000
C134        C  0.51122282  0.78186824  0.17643470     0.07200
C135        C  0.49727223  0.78844458  0.17438625     0.01000
H136        H  0.51659562  0.76004913  0.18704077     0.08600
H137        H  0.49479983  0.79892751  0.16877126     0.07700
N138        N  0.46869601  0.73443602  0.20542818    -0.36100
N139        N  0.45416057  0.73329465  0.20282853    -0.28300
C140        C  0.44848169  0.72263741  0.21185863    -0.03600
C141        C  0.46002174  0.71712885  0.22065546     0.05000
C142        C  0.47264341  0.72483912  0.21628987     0.03100
H143        H  0.43671171  0.71985606  0.21268055     0.08200
H144        H  0.48379166  0.72390648  0.22098154     0.07100
N145        N  0.73753269  0.54014559  0.19660614    -0.27300
N146        N  0.74483980  0.53239859  0.18630539    -0.35200
C147        C  0.75258003  0.54187693  0.17758231     0.01000
C148        C  0.75010190  0.55635594  0.18262436     0.07100
C149        C  0.74058558  0.55484828  0.19480197    -0.06000
H150        H  0.75894472  0.53851584  0.16782278     0.07700
H151        H  0.73535221  0.56382240  0.20110459     0.08900
Cu152      Cu  0.74223521  0.50962376  0.18306995     0.44200
Cu153      Cu  0.72167499  0.53020707  0.21043619     0.42000
Cu154      Cu  0.71090809  0.49125924  0.20039039     0.43900
N155        N  0.73711861  0.48734319  0.17949336    -0.34700
N156        N  0.72543409  0.48040349  0.18535892    -0.28900
C157        C  0.72550436  0.46601341  0.18054973    -0.05000
C158        C  0.73795333  0.46387819  0.17138870     0.07200
C159        C  0.74496344  0.47768353  0.17100691     0.01000
H160        H  0.71742900  0.45761620  0.18387908     0.08600
H161        H  0.75510090  0.48054243  0.16501057     0.07700
N162        N  0.69963218  0.50484964  0.21599063    -0.36100
N163        N  0.70399439  0.51846661  0.22002499    -0.28300
C164        C  0.69457487  0.52379482  0.23054807    -0.03600
C165        C  0.68361586  0.51317375  0.23318261     0.05000
C166        C  0.68714958  0.50132820  0.22373132     0.03100
H167        H  0.69541214  0.53479719  0.23560537     0.08200
H168        H  0.68117839  0.49083070  0.22268656     0.07100
N169        N  0.20584348  0.76993044  0.41674415    -0.27300
N170        N  0.19939891  0.77941223  0.42613273    -0.35200
C171        C  0.19153980  0.78964499  0.41831451     0.01000
C172        C  0.19305108  0.78645485  0.40321063     0.07100
C173        C  0.20218477  0.77381874  0.40265524    -0.06000
H174        H  0.18490776  0.79851845  0.42331973     0.07700
H175        H  0.20591706  0.76787386  0.39277218     0.08900
Cu176      Cu  0.20111274  0.77753021  0.44913978     0.44200
Cu177      Cu  0.21892098  0.75203311  0.42391473     0.42000
Cu178      Cu  0.21820344  0.74401923  0.46423487     0.43900
N179        N  0.20302464  0.77309471  0.47177445    -0.34700
N180        N  0.20861374  0.76054753  0.47742574    -0.28900
C181        C  0.20741113  0.76098822  0.49244451    -0.05000
C182        C  0.20098525  0.77460117  0.49632976     0.07200
C183        C  0.19835542  0.78195845  0.48298486     0.01000
H184        H  0.21106315  0.75215912  0.49993635     0.08600
H185        H  0.19302552  0.79279542  0.48150355     0.07700
N186        N  0.22960283  0.73127108  0.44853933    -0.36100
N187        N  0.23036488  0.73449988  0.43411138    -0.28300
C188        C  0.23982762  0.72480370  0.42744714    -0.03600
C189        C  0.24517976  0.71494301  0.43816934     0.05000
C190        C  0.23841314  0.71933971  0.45139051     0.03100
H191        H  0.24269384  0.72503676  0.41568678     0.08200
H192        H  0.24028850  0.71467869  0.46241407     0.07100
O193        O  0.45160214  0.52647559  0.56363855    -0.73000
O194        O  0.45361537  0.48062593  0.56423112    -0.73900
O195        O  0.47544396  0.50458424  0.56410335    -0.62600
O196        O  0.42983782  0.50285054  0.56405894    -0.71000
O197        O  0.43058231  0.50273473  0.53922983    -0.70500
O198        O  0.47480284  0.50409093  0.53928264    -0.61800
O199        O  0.45335980  0.48114996  0.53941051    -0.74300
O200        O  0.45168038  0.52540170  0.53882372    -0.73100
Cu201      Cu  0.45265626  0.50360039  0.56500672     1.04600
Cu202      Cu  0.45265582  0.50328789  0.53844858     1.04300
C203        C  0.45105576  0.53300033  0.55087102     0.93200
C204        C  0.45359550  0.47378030  0.55161837     0.92400
C205        C  0.48219087  0.50477000  0.55146633     0.84500
C206        C  0.42313951  0.50293316  0.55140095     0.90800
O207        O  0.45977995  0.52833862  0.31628606    -0.73000
O208        O  0.45997392  0.48233968  0.31619599    -0.73900
O209        O  0.43714759  0.50525451  0.31671090    -0.62600
O210        O  0.48262378  0.50573478  0.31551346    -0.71000
O211        O  0.48245712  0.50502537  0.34034102    -0.70500
O212        O  0.43823062  0.50552333  0.34153164    -0.61800
O213        O  0.46010208  0.48303329  0.34100314    -0.74300
O214        O  0.46073812  0.52743981  0.34108257    -0.73100
Cu215      Cu  0.45983544  0.50539932  0.31519224     1.04600
Cu216      Cu  0.46038142  0.50524865  0.34174101     1.04300
C217        C  0.46063100  0.53498133  0.32896714     0.93200
C218        C  0.45991578  0.47555328  0.32885397     0.92400
C219        C  0.43063873  0.50526517  0.32946720     0.84500
C220        C  0.48960719  0.50566039  0.32800171     0.90800
O221        O  0.43264409  0.40146502  0.44249689    -0.73000
O222        O  0.47671908  0.40418341  0.43892128    -0.73900
O223        O  0.45301688  0.40309410  0.41868053    -0.62600
O224        O  0.45627092  0.40237331  0.46263480    -0.71000
O225        O  0.45795605  0.37749918  0.46291864    -0.70500
O226        O  0.45474069  0.37824983  0.41740326    -0.61800
O227        O  0.47908562  0.37936823  0.43844456    -0.74300
O228        O  0.43347491  0.37656248  0.44167777    -0.73100
Cu229      Cu  0.45461502  0.40351404  0.44069150     1.04600
Cu230      Cu  0.45636849  0.37691543  0.44009945     1.04300
C231        C  0.42599576  0.38883913  0.44271582     0.93200
C232        C  0.48493958  0.39248001  0.43806461     0.92400
C233        C  0.45355253  0.39105573  0.41099590     0.84500
C234        C  0.45745647  0.39008173  0.46983968     0.90800
O235        O  0.55705774  0.50950292  0.41833377    -0.73000
O236        O  0.55532060  0.50641893  0.46228569    -0.73900
O237        O  0.55685719  0.53029021  0.44207500    -0.62600
O238        O  0.55562797  0.48572554  0.43868126    -0.71000
O239        O  0.58045182  0.48432634  0.43970765    -0.70500
O240        O  0.58174457  0.53005885  0.44242684    -0.61800
O241        O  0.58016252  0.50602202  0.46385231    -0.74300
O242        O  0.58194794  0.50864249  0.41843821    -0.73100
Cu243      Cu  0.55544864  0.50801709  0.44029495     1.04600
Cu244      Cu  0.58204446  0.50721230  0.44113720     1.04300
C245        C  0.56951682  0.50944213  0.41134627     0.93200
C246        C  0.56724162  0.50592898  0.47011142     0.92400
C247        C  0.56930617  0.53726674  0.44288219     0.84500
C248        C  0.56765818  0.47791553  0.43868594     0.90800
O249        O  0.45464363  0.62872342  0.46217026    -0.73000
O250        O  0.46391653  0.62952877  0.41764052    -0.73900
O251        O  0.43704641  0.62674802  0.43526478    -0.62600
O252        O  0.48172251  0.63119685  0.44454888    -0.71000
O253        O  0.48298918  0.60632333  0.44541204    -0.70500
O254        O  0.44026446  0.60202279  0.43476018    -0.61800
O255        O  0.46696582  0.60478890  0.41847699    -0.74300
O256        O  0.45618237  0.60384467  0.46145042    -0.73100
Cu257      Cu  0.45926162  0.63004701  0.43989397     1.04600
Cu258      Cu  0.46172712  0.60350748  0.44000850     1.04300
C259        C  0.45367142  0.61594547  0.46865556     0.93200
C260        C  0.46680935  0.61706314  0.41111994     0.92400
C261        C  0.43174727  0.61347835  0.43366863     0.84500
C262        C  0.48926281  0.61908936  0.44660237     0.90800
O263        O  0.35716713  0.49629008  0.41738035    -0.73000
O264        O  0.35539765  0.50088498  0.46148029    -0.73900
O265        O  0.35546339  0.47669387  0.44173658    -0.62600
O266        O  0.35780512  0.52044656  0.43723265    -0.71000
O267        O  0.33303852  0.52268161  0.43619029    -0.70500
O268        O  0.33062389  0.47686226  0.44018578    -0.61800
O269        O  0.33053025  0.50173048  0.46094383    -0.74300
O270        O  0.33237679  0.49762870  0.41556910    -0.73100
Cu271      Cu  0.35718538  0.49852911  0.43947672     1.04600
Cu272      Cu  0.33063351  0.49978628  0.43818156     1.04300
C273        C  0.34527504  0.49627595  0.40944228     0.93200
C274        C  0.34284781  0.50198630  0.46827362     0.92400
C275        C  0.34304866  0.46972659  0.44171677     0.84500
C276        C  0.34613956  0.52860858  0.43604597     0.90800
N277        N  0.38523989  0.38519749  0.44124621    -0.27300
N278        N  0.38689940  0.39872746  0.44704146    -0.35200
C279        C  0.40149900  0.40146364  0.44903981     0.01000
C280        C  0.40958735  0.38909483  0.44432725     0.07100
C281        C  0.39893895  0.37885956  0.43949615    -0.06000
H282        H  0.40595498  0.41207840  0.45285467     0.07700
H283        H  0.40101101  0.36808539  0.43428585     0.08900
Cu284      Cu  0.36989628  0.41424746  0.44953966     0.44200
Cu285      Cu  0.36406606  0.37757844  0.43513789     0.42000
Cu286      Cu  0.33352215  0.40723748  0.43731994     0.43900
N287        N  0.35418973  0.43105602  0.44689516    -0.34700
N288        N  0.34042252  0.42884061  0.44202454    -0.28900
C289        C  0.33362580  0.44228273  0.43997487    -0.05000
C290        C  0.34384434  0.45337446  0.44366473     0.07200
C291        C  0.35667685  0.44579999  0.44798393     0.01000
H292        H  0.32250451  0.44383862  0.43538774     0.08600
H293        H  0.36735009  0.45067316  0.45100752     0.07700
N294        N  0.33053017  0.38438291  0.43444646    -0.36100
N295        N  0.34107624  0.37391224  0.43314067    -0.28300
C296        C  0.33442761  0.36037941  0.43227328    -0.03600
C297        C  0.31910535  0.36251387  0.43330804     0.05000
C298        C  0.31705788  0.37778005  0.43469526     0.03100
H299        H  0.34034265  0.34975073  0.43196896     0.08200
H300        H  0.30653814  0.38365374  0.43634147     0.07100
N301        N  0.39108164  0.61324141  0.42866016    -0.27300
N302        N  0.39405604  0.59875621  0.42993885    -0.35200
C303        C  0.40891286  0.59684867  0.43131706     0.01000
C304        C  0.41568591  0.61079742  0.43105388     0.07100
C305        C  0.40404134  0.62100471  0.42935222    -0.06000
H306        H  0.41434936  0.58609251  0.43299466     0.07700
H307        H  0.40486351  0.63311851  0.42904806     0.08900
Cu308      Cu  0.37776727  0.58221283  0.43112151     0.44200
Cu309      Cu  0.36919159  0.62093083  0.42686632     0.42000
Cu310      Cu  0.33914110  0.59137241  0.42868990     0.43900
N311        N  0.36081290  0.56636872  0.43251830    -0.34700
N312        N  0.34636098  0.56945392  0.43141637    -0.28900
C313        C  0.33847297  0.55656855  0.43255581    -0.05000
C314        C  0.34859287  0.54487594  0.43449386     0.07200
C315        C  0.36257464  0.55155886  0.43443385     0.01000
H316        H  0.32638329  0.55579846  0.43197971     0.08600
H317        H  0.37333195  0.54601275  0.43559418     0.07700
N318        N  0.33572532  0.61434341  0.42745142    -0.36100
N319        N  0.34623149  0.62478053  0.42644431    -0.28300
C320        C  0.33961958  0.63837662  0.42630492    -0.03600
C321        C  0.32432138  0.63637152  0.42751115     0.05000
C322        C  0.32224660  0.62105016  0.42821140     0.03100
H323        H  0.34556601  0.64893990  0.42606805     0.08200
H324        H  0.31172001  0.61517579  0.42943178     0.07100
N325        N  0.39005558  0.50209917  0.32639269    -0.27300
N326        N  0.39207968  0.50150153  0.34097164    -0.35200
C327        C  0.40664222  0.50304836  0.34408378     0.01000
C328        C  0.41429619  0.50457504  0.33076756     0.07100
C329        C  0.40346829  0.50393685  0.31966102    -0.06000
H330        H  0.41135473  0.50256500  0.35522709     0.07700
H331        H  0.40521940  0.50438299  0.30769197     0.08900
Cu332      Cu  0.37510413  0.49753581  0.35576247     0.44200
Cu333      Cu  0.36869204  0.49952636  0.31796671     0.42000
Cu334      Cu  0.33699601  0.49270381  0.34619363     0.43900
N335        N  0.35859736  0.49497072  0.37135068    -0.34700
N336        N  0.34415557  0.49359980  0.36847972    -0.28900
C337        C  0.33664230  0.49358764  0.38166456    -0.05000
C338        C  0.34711283  0.49496807  0.39313943     0.07200
C339        C  0.36079528  0.49573131  0.38608950     0.01000
H340        H  0.32458400  0.49291012  0.38279335     0.08600
H341        H  0.37163868  0.49728408  0.39127803     0.07700
N342        N  0.33524067  0.49337297  0.32279618    -0.36100
N343        N  0.34628189  0.49611473  0.31322637    -0.28300
C344        C  0.34079925  0.49627553  0.29925694    -0.03600
C345        C  0.32563870  0.49339835  0.29989492     0.05000
C346        C  0.32248257  0.49156662  0.31497267     0.03100
H347        H  0.34748140  0.49823103  0.28934528     0.08200
H348        H  0.31163819  0.48943193  0.31995291     0.07100
N349        N  0.38219428  0.50393381  0.55387911    -0.27300
N350        N  0.38465119  0.50648633  0.53957170    -0.35200
C351        C  0.39936817  0.50646286  0.53687668     0.01000
C352        C  0.40675933  0.50381609  0.55014761     0.07100
C353        C  0.39555860  0.50233755  0.56086628    -0.06000
H354        H  0.40431925  0.50806287  0.52593617     0.07700
H355        H  0.39698262  0.49998640  0.57265517     0.08900
Cu356      Cu  0.36808290  0.50850071  0.52399484     0.44200
Cu357      Cu  0.36013834  0.50222351  0.56113827     0.42000
Cu358      Cu  0.32949880  0.50393556  0.53093284     0.43900
N359        N  0.35278492  0.50654911  0.50718409    -0.34700
N360        N  0.33823626  0.50466508  0.50906850    -0.28900
C361        C  0.33189510  0.50293639  0.49539665    -0.05000
C362        C  0.34322319  0.50372542  0.48466340     0.07200
C363        C  0.35619761  0.50599677  0.49264616     0.01000
H364        H  0.32010612  0.50090757  0.49344642     0.08600
H365        H  0.36746059  0.50691715  0.48822899     0.07700
N366        N  0.32624907  0.50254730  0.55426465    -0.36100
N367        N  0.33704476  0.50140970  0.56443980    -0.28300
C368        C  0.33082920  0.49980873  0.57802283    -0.03600
C369        C  0.31543872  0.50007165  0.57655583     0.05000
C370        C  0.31288468  0.50196649  0.56136396     0.03100
H371        H  0.33713261  0.49874018  0.58830892     0.08200
H372        H  0.30210880  0.50252938  0.55583648     0.07100
N373        N  0.57341074  0.57822243  0.44414839    -0.27300
N374        N  0.55956540  0.57631341  0.44902904    -0.35200
C375        C  0.55637273  0.56164512  0.44940829     0.01000
C376        C  0.56881382  0.55370413  0.44472937     0.07100
C377        C  0.57955104  0.56453869  0.44153665    -0.06000
H378        H  0.54559149  0.55710162  0.45258026     0.07700
H379        H  0.59068805  0.56265063  0.43709393     0.08900
Cu380      Cu  0.54467958  0.59335021  0.45368858     0.44200
Cu381      Cu  0.58161728  0.59992717  0.44038507     0.42000
Cu382      Cu  0.55148772  0.63032357  0.44464178     0.43900
N383        N  0.52785222  0.60915212  0.45347841    -0.34700
N384        N  0.52986154  0.62323416  0.44943874    -0.28900
C385        C  0.51629313  0.62978983  0.44740890    -0.05000
C386        C  0.50536094  0.61906818  0.45024322     0.07200
C387        C  0.51318433  0.60624842  0.45416036     0.01000
H388        H  0.51457218  0.64095269  0.44293093     0.08600
H389        H  0.50857798  0.59517213  0.45597931     0.07700
N390        N  0.57417248  0.63355783  0.44034764    -0.36100
N391        N  0.58475953  0.62320416  0.43845704    -0.28300
C392        C  0.59795848  0.63020797  0.43614507    -0.03600
C393        C  0.59555439  0.64557924  0.43686726     0.05000
C394        C  0.58038821  0.64721487  0.43949834     0.03100
H395        H  0.60861537  0.62452479  0.43475109     0.08200
H396        H  0.57426434  0.65763048  0.44093004     0.07100
N397        N  0.46259946  0.57600685  0.32659107    -0.27300
N398        N  0.46623693  0.57343318  0.34065675    -0.35200
C399        C  0.46596260  0.55866535  0.34331258     0.01000
C400        C  0.46206956  0.55138202  0.33026949     0.07100
C401        C  0.46006780  0.56270625  0.31974591    -0.06000
H402        H  0.46835834  0.55359268  0.35405631     0.07700
H403        H  0.45676359  0.56141463  0.30817760     0.08900
Cu404      Cu  0.47057555  0.58998669  0.35600799     0.44200
Cu405      Cu  0.46089057  0.59808167  0.31919874     0.42000
Cu406      Cu  0.46524357  0.62857648  0.34896584     0.43900
N407        N  0.47118111  0.60590711  0.37257564    -0.34700
N408        N  0.46870627  0.62037372  0.37047327    -0.28900
C409        C  0.46761102  0.62714265  0.38396543    -0.05000
C410        C  0.46948255  0.61622641  0.39492291     0.07200
C411        C  0.47178515  0.60300046  0.38723507     0.01000
H412        H  0.46473241  0.63883502  0.38565248     0.08600
H413        H  0.47271609  0.59183854  0.39194450     0.07700
N414        N  0.46191508  0.63185974  0.32613513    -0.36100
N415        N  0.46021903  0.62122119  0.31589830    -0.28300
C416        C  0.45840926  0.62771160  0.30246173    -0.03600
C417        C  0.45906328  0.64312052  0.30420145     0.05000
C418        C  0.46131471  0.64533880  0.31935861     0.03100
H419        H  0.45714093  0.62155666  0.29211475     0.08200
H420        H  0.46245336  0.65595917  0.32510653     0.07100
N421        N  0.44741531  0.61806096  0.50895732    -0.27300
N422        N  0.44490235  0.60373917  0.50619530    -0.35200
C423        C  0.44609596  0.60122273  0.49148752     0.01000
C424        C  0.44957229  0.61458844  0.48451383     0.07100
C425        C  0.45023871  0.62515767  0.49589616    -0.06000
H426        H  0.44537540  0.59024812  0.48634884     0.07700
H427        H  0.45347486  0.63681014  0.49489300     0.08900
Cu428      Cu  0.44297943  0.58763326  0.52254864     0.44200
Cu429      Cu  0.44885379  0.62555976  0.53090085     0.42000
Cu430      Cu  0.45185800  0.59581350  0.56068018     0.43900
N431        N  0.44588008  0.57138066  0.53864937    -0.34700
N432        N  0.44926961  0.57397960  0.55279440    -0.28900
C433        C  0.45133861  0.56068345  0.55981496    -0.05000
C434        C  0.44931655  0.54933713  0.54939454     0.07200
C435        C  0.44585590  0.55656901  0.53618491     0.01000
H436        H  0.45456548  0.55941223  0.57141025     0.08600
H437        H  0.44381883  0.55144258  0.52540367     0.07700
N438        N  0.45306747  0.61892134  0.56423858    -0.36100
N439        N  0.45133501  0.62929617  0.55372526    -0.28300
C440        C  0.45174619  0.64293280  0.56010512    -0.03600
C441        C  0.45407875  0.64114527  0.57525357     0.05000
C442        C  0.45492934  0.62580557  0.57753228     0.03100
H443        H  0.45051198  0.65342288  0.55411187     0.08200
H444        H  0.45630491  0.62006156  0.58811339     0.07100
N445        N  0.52589351  0.39201965  0.43515227    -0.27300
N446        N  0.52289820  0.40653126  0.43512921    -0.35200
C447        C  0.50805114  0.40861628  0.43597874     0.01000
C448        C  0.50121736  0.39473680  0.43661853     0.07100
C449        C  0.51286596  0.38435535  0.43603648    -0.06000
H450        H  0.50262917  0.41950443  0.43636005     0.07700
H451        H  0.51197272  0.37225052  0.43645512     0.08900
Cu452      Cu  0.53918494  0.42284945  0.43483715     0.44200
Cu453      Cu  0.54806503  0.38487011  0.43452337     0.42000
Cu454      Cu  0.57845869  0.41465650  0.43628213     0.43900
N455        N  0.55539913  0.43920977  0.43590010    -0.34700
N456        N  0.57000587  0.43672353  0.43649597    -0.28900
C457        C  0.57704593  0.45014539  0.43746347    -0.05000
C458        C  0.56619601  0.46143807  0.43751514     0.07200
C459        C  0.55270295  0.45399689  0.43649620     0.01000
H460        H  0.58906271  0.45156816  0.43822127     0.08600
H461        H  0.54161294  0.45897627  0.43635347     0.07700
N462        N  0.58185772  0.39126269  0.43561587    -0.36100
N463        N  0.57108046  0.38108982  0.43450131    -0.28300
C464        C  0.57728327  0.36734131  0.43383661    -0.03600
C465        C  0.59265207  0.36873559  0.43473910     0.05000
C466        C  0.59519598  0.38404173  0.43595079     0.03100
H467        H  0.57098327  0.35701033  0.43310994     0.08200
H468        H  0.60595675  0.38953490  0.43683454     0.07100
N469        N  0.53016463  0.51110813  0.32508102    -0.27300
N470        N  0.52822220  0.50782905  0.33933082    -0.35200
C471        C  0.51380794  0.50502112  0.34203806     0.01000
C472        C  0.50600108  0.50652060  0.32887335     0.07100
C473        C  0.51666773  0.51042346  0.31818390    -0.06000
H474        H  0.50928709  0.50248558  0.35298804     0.07700
H475        H  0.51471539  0.51297457  0.30651196     0.08900
Cu476      Cu  0.54451955  0.50815523  0.35514482     0.44200
Cu477      Cu  0.55176627  0.51632491  0.31766685     0.42000
Cu478      Cu  0.58123008  0.51761505  0.34938309     0.43900
N479        N  0.55918367  0.50963181  0.37242784    -0.34700
N480        N  0.57340784  0.51319864  0.37082659    -0.28900
C481        C  0.57987843  0.51345574  0.38449899    -0.05000
C482        C  0.56889679  0.51000399  0.39498287     0.07200
C483        C  0.55600542  0.50767276  0.38687658     0.01000
H484        H  0.59146563  0.51627322  0.38664913     0.08600
H485        H  0.54500464  0.50490327  0.39116490     0.07700
N486        N  0.58503716  0.51933071  0.32645202    -0.36100
N487        N  0.57505047  0.51870609  0.31545897    -0.28300
C488        C  0.58242644  0.51890862  0.30230483    -0.03600
C489        C  0.59768980  0.51973771  0.30510107     0.05000
C490        C  0.59885428  0.52004741  0.32051415     0.03100
H491        H  0.57703000  0.51822375  0.29149658     0.08200
H492        H  0.60905839  0.52009129  0.32704642     0.07100
N493        N  0.52302291  0.50767386  0.55445919    -0.27300
N494        N  0.52091225  0.50689551  0.53987892    -0.35200
C495        C  0.50627652  0.50582918  0.53694933     0.01000
C496        C  0.49857914  0.50585559  0.55031020     0.07100
C497        C  0.50950878  0.50709494  0.56131949    -0.06000
H498        H  0.50159459  0.50494273  0.52582004     0.07700
H499        H  0.50779610  0.50745997  0.57329643     0.08900
Cu500      Cu  0.53768057  0.50664682  0.52430232     0.44200
Cu501      Cu  0.54477449  0.50917138  0.56278953     0.42000
Cu502      Cu  0.57557537  0.51036019  0.53296462     0.43900
N503        N  0.55398890  0.50600325  0.50825439    -0.34700
N504        N  0.56842888  0.50755449  0.51097045    -0.28900
C505        C  0.57590120  0.50730641  0.49779660    -0.05000
C506        C  0.56543427  0.50551189  0.48643200     0.07200
C507        C  0.55174566  0.50470820  0.49354327     0.01000
H508        H  0.58787481  0.50877278  0.49656594     0.08600
H509        H  0.54082465  0.50371575  0.48837183     0.07700
N510        N  0.57839486  0.51183434  0.55609924    -0.36100
N511        N  0.56779717  0.51098638  0.56649639    -0.28300
C512        C  0.57424922  0.51189139  0.58007548    -0.03600
C513        C  0.58954488  0.51358051  0.57818311     0.05000
C514        C  0.59173690  0.51348237  0.56285927     0.03100
H515        H  0.56817458  0.51160348  0.59055140     0.08200
H516        H  0.60231553  0.51429711  0.55698733     0.07100
N517        N  0.45835597  0.43436636  0.32630511    -0.27300
N518        N  0.45833662  0.43670900  0.34087075    -0.35200
C519        C  0.45905252  0.45144814  0.34362275     0.01000
C520        C  0.45949219  0.45902464  0.33015537     0.07100
C521        C  0.45901741  0.44783887  0.31928079    -0.06000
H522        H  0.45905898  0.45631891  0.35471345     0.07700
H523        H  0.45908113  0.44937135  0.30727617     0.08900
Cu524      Cu  0.45673702  0.41995890  0.35654008     0.44200
Cu525      Cu  0.45753867  0.41224432  0.31842251     0.42000
Cu526      Cu  0.45536353  0.38134092  0.34825532     0.43900
N527        N  0.45455448  0.40375141  0.37267886    -0.34700
N528        N  0.45430389  0.38916392  0.37012832    -0.28900
C529        C  0.45355995  0.38189729  0.38339944    -0.05000
C530        C  0.45325136  0.39264786  0.39465559     0.07200
C531        C  0.45385320  0.40627629  0.38738472     0.01000
H532        H  0.45352072  0.36982265  0.38474163     0.08600
H533        H  0.45422605  0.41730849  0.39244105     0.07700
N534        N  0.45633702  0.37830445  0.32517506    -0.36100
N535        N  0.45728047  0.38896779  0.31483598    -0.28300
C536        C  0.45786508  0.38242133  0.30128215    -0.03600
C537        C  0.45712774  0.36700309  0.30310657     0.05000
C538        C  0.45614379  0.36482595  0.31838942     0.03100
H539        H  0.45848891  0.38850461  0.29082481     0.08200
H540        H  0.45546502  0.35420141  0.32422011     0.07100
N541        N  0.45632810  0.43282919  0.55419830    -0.27300
N542        N  0.45315512  0.43488366  0.53995256    -0.35200
C543        C  0.45144991  0.44955976  0.53724439     0.01000
C544        C  0.45362722  0.45729664  0.55045052     0.07100
C545        C  0.45665484  0.44633478  0.56110591    -0.06000
H546        H  0.44922051  0.45429395  0.52631345     0.07700
H547        H  0.45936168  0.44805402  0.57277262     0.08900
Cu548      Cu  0.45299075  0.41770890  0.52465790     0.44200
Cu549      Cu  0.46061241  0.41114196  0.56157806     0.42000
Cu550      Cu  0.46585042  0.38032995  0.53228339     0.43900
N551        N  0.45608787  0.40164888  0.50849465    -0.34700
N552        N  0.46113213  0.38784602  0.51063512    -0.28900
C553        C  0.46225581  0.38096191  0.49716249    -0.05000
C554        C  0.45778735  0.39116394  0.48624000     0.07200
C555        C  0.45398248  0.40402871  0.49390721     0.01000
H556        H  0.46627260  0.36961176  0.49544649     0.08600
H557        H  0.45014057  0.41455775  0.48919141     0.07700
N558        N  0.46548885  0.37746138  0.55553102    -0.36100
N559        N  0.46305662  0.38825145  0.56549005    -0.28300
C560        C  0.46169109  0.38207818  0.57911457    -0.03600
C561        C  0.46344052  0.36672908  0.57785181     0.05000
C562        C  0.46598005  0.36417787  0.56276614     0.03100
H563        H  0.45943911  0.38837479  0.58922220     0.08200
H564        H  0.46736315  0.35340120  0.55734063     0.07100
N565        N  0.71838703  0.76954469  0.40386003    -0.27300
N566        N  0.72829411  0.77723432  0.41166824    -0.35200
C567        C  0.73856784  0.78300107  0.40231650     0.01000
C568        C  0.73482425  0.77886473  0.38789372     0.07100
C569        C  0.72193536  0.77037619  0.38926562    -0.06000
H570        H  0.74770176  0.79019298  0.40570882     0.07700
H571        H  0.71555827  0.76527033  0.38033598     0.08900
Cu572      Cu  0.72657072  0.78041494  0.43447525     0.44200
Cu573      Cu  0.70069752  0.75838916  0.41372728     0.42000
Cu574      Cu  0.69467838  0.76472224  0.45389240     0.43900
N575        N  0.72271232  0.78304582  0.45709852    -0.34700
N576        N  0.71084262  0.77785848  0.46427560    -0.28900
C577        C  0.71213896  0.78125848  0.47890999    -0.05000
C578        C  0.72557713  0.78873146  0.48095804     0.07200
C579        C  0.73194128  0.78966663  0.46690849     0.01000
H580        H  0.70430142  0.77786154  0.48750163     0.08600
H581        H  0.74264626  0.79456995  0.46404252     0.07700
N582        N  0.68263092  0.74957060  0.44095340    -0.36100
N583        N  0.68510573  0.74710705  0.42656444    -0.28300
C584        C  0.67641679  0.73573698  0.42193179    -0.03600
C585        C  0.66797138  0.73082995  0.43393042     0.05000
C586        C  0.67215043  0.73989625  0.44579703     0.03100
H587        H  0.67638348  0.73130126  0.41066661     0.08200
H588        H  0.66831716  0.73912672  0.45725683     0.07100
N589        N  0.49200357  0.77203978  0.69049056    -0.27300
N590        N  0.48484185  0.78299467  0.69748418    -0.35200
C591        C  0.49474927  0.79123396  0.70519002     0.01000
C592        C  0.50887515  0.78510769  0.70312507     0.07100
C593        C  0.50672709  0.77289463  0.69375905    -0.06000
H594        H  0.49178989  0.80070245  0.71219203     0.07700
H595        H  0.51521342  0.76525269  0.68958506     0.08900
Cu596      Cu  0.46182473  0.78556357  0.69743268     0.44200
Cu597      Cu  0.48096778  0.75671614  0.67693594     0.42000
Cu598      Cu  0.43981107  0.76044741  0.67512013     0.43900
N599        N  0.43868370  0.78530213  0.69782677    -0.34700
N600        N  0.43044136  0.77631149  0.68947258    -0.28900
C601        C  0.41587153  0.77870370  0.69270245    -0.05000
C602        C  0.41497167  0.78960247  0.70375818     0.07200
C603        C  0.42967111  0.79349563  0.70671172     0.01000
H604        H  0.40667107  0.77254903  0.68779694     0.08600
H605        H  0.43358396  0.80159100  0.71482380     0.07700
N606        N  0.45237602  0.74500185  0.66285977    -0.36100
N607        N  0.46712702  0.74354870  0.66369421    -0.28300
C608        C  0.47155018  0.73236510  0.65457763    -0.03600
C609        C  0.45902512  0.72648343  0.64759251     0.05000
C610        C  0.44707091  0.73480638  0.65312752     0.03100
H611        H  0.48309246  0.72890420  0.65306457     0.08200
H612        H  0.43532092  0.73341738  0.65049619     0.07100
N613        N  0.72002346  0.48612780  0.69622361    -0.27300
N614        N  0.73284191  0.49264311  0.69972112    -0.35200
C615        C  0.74123377  0.48301720  0.70772585     0.01000
C616        C  0.73336532  0.46973609  0.70937288     0.07100
C617        C  0.71993799  0.47215607  0.70192456    -0.06000
H618        H  0.75219971  0.48565032  0.71213336     0.07700
H619        H  0.71084344  0.46429590  0.70048302     0.08900
Cu620      Cu  0.73851239  0.51443483  0.69412320     0.44200
Cu621      Cu  0.70338964  0.49619147  0.68345211     0.42000
Cu622      Cu  0.71167663  0.53448936  0.67245335     0.43900
N623        N  0.73994377  0.53728320  0.69031725    -0.34700
N624        N  0.72964493  0.54481504  0.68277740    -0.28900
C625        C  0.73213817  0.55960863  0.68435541    -0.05000
C626        C  0.74471607  0.56146656  0.69323691     0.07200
C627        C  0.74942359  0.54705272  0.69672573     0.01000
H628        H  0.72490491  0.56833979  0.67996835     0.08600
H629        H  0.75828891  0.54392621  0.70438902     0.07700
N630        N  0.69371377  0.52229482  0.66439948    -0.36100
N631        N  0.69023360  0.50856783  0.66879813    -0.28300
C632        C  0.67769847  0.50419914  0.66165872    -0.03600
C633        C  0.67321322  0.51570167  0.65220978     0.05000
C634        C  0.68365418  0.52695090  0.65423231     0.03100
H635        H  0.67250833  0.49331259  0.66293254     0.08200
H636        H  0.68387752  0.53781250  0.64881269     0.07100
N637        N  0.70860250  0.23681426  0.41259208    -0.27300
N638        N  0.72113542  0.23371965  0.41983878    -0.35200
C639        C  0.73089731  0.22720634  0.41043054     0.01000
C640        C  0.72427527  0.22614697  0.39646977     0.07100
C641        C  0.71007660  0.23234317  0.39827156    -0.06000
H642        H  0.74198699  0.22346252  0.41364096     0.07700
H643        H  0.70159373  0.23387371  0.38975789     0.08900
Cu644      Cu  0.72453234  0.23790835  0.44227643     0.44200
Cu645      Cu  0.69073237  0.24773700  0.42273996     0.42000
Cu646      Cu  0.69435534  0.25305171  0.46357828     0.43900
N647        N  0.72468849  0.23849185  0.46534299    -0.34700
N648        N  0.71315869  0.24309401  0.47343967    -0.28900
C649        C  0.71604368  0.24017438  0.48796998    -0.05000
C650        C  0.73017800  0.23362206  0.48898849     0.07200
C651        C  0.73528874  0.23279997  0.47440049     0.01000
H652        H  0.70840166  0.24253802  0.49708293     0.08600
H653        H  0.74562118  0.22768644  0.47055211     0.07700
N654        N  0.67865648  0.26398663  0.45000280    -0.36100
N655        N  0.67708065  0.26165402  0.43546043    -0.28300
C656        C  0.66675209  0.27125276  0.43002504    -0.03600
C657        C  0.66170227  0.28025091  0.44160154     0.05000
C658        C  0.66947906  0.27530319  0.45410576     0.03100
H659        H  0.66389731  0.27227811  0.41830595     0.08200
H660        H  0.66888648  0.27991069  0.46528765     0.07100
O661        O  0.74168474  0.76009225  0.95731614    -0.73000
O662        O  0.71674753  0.78398390  0.92852987    -0.73900
O663        O  0.71898746  0.78213663  0.96028343    -0.62600
O664        O  0.73922941  0.76192198  0.92557033    -0.71000
O665        O  0.72204187  0.74401794  0.92578121    -0.70500
O666        O  0.70189744  0.76413439  0.96067200    -0.61800
O667        O  0.69950978  0.76612767  0.92874838    -0.74300
O668        O  0.72464138  0.74205940  0.95766033    -0.73100
Cu669      Cu  0.72975446  0.77263850  0.94294370     1.04600
Cu670      Cu  0.71141032  0.75346937  0.94325164     1.04300
C671        C  0.73708680  0.74745067  0.96225784     0.93200
C672        C  0.70441478  0.77861708  0.92366902     0.92400
C673        C  0.70731944  0.77622168  0.96610461     0.84500
C674        C  0.73366371  0.74998519  0.91993447     0.90800
N675        N  0.64714573  0.82674715  0.80962921    -0.27300
N676        N  0.65626992  0.83831452  0.81116493    -0.35200
C677        C  0.66469559  0.83632368  0.82346097     0.01000
C678        C  0.66077045  0.82285032  0.83019040     0.07100
C679        C  0.64955840  0.81711068  0.82102135    -0.06000
H680        H  0.67294718  0.84432433  0.82722721     0.07700
H681        H  0.64349032  0.80673028  0.82248615     0.08900
Cu682      Cu  0.65706314  0.85681110  0.79703220     0.44200
Cu683      Cu  0.63171524  0.82459579  0.79212885     0.42000
Cu684      Cu  0.63130936  0.85643276  0.76673133     0.43900
N685        N  0.65568673  0.87411558  0.78152079    -0.34700
N686        N  0.64599979  0.87396296  0.77037022    -0.28900
C687        C  0.64794915  0.88629138  0.76192655    -0.05000
C688        C  0.65952705  0.89465942  0.76798905     0.07200
C689        C  0.66414343  0.88655494  0.78045481     0.01000
H690        H  0.64175244  0.88863951  0.75179282     0.08600
H691        H  0.67311282  0.88933751  0.78808846     0.07700
N692        N  0.61757573  0.83791125  0.76445153    -0.36100
N693        N  0.61767990  0.82610156  0.77342905    -0.28300
C694        C  0.60714134  0.81634787  0.76871500    -0.03600
C695        C  0.60001691  0.82245088  0.75629775     0.05000
C696        C  0.60697485  0.83609759  0.75396544     0.03100
H697        H  0.60446144  0.80589308  0.77425450     0.08200
H698        H  0.60440949  0.84425477  0.74535595     0.07100
O699        O  0.70119614  0.98947986  0.70789140    -0.73000
O700        O  0.72130634  0.02292920  0.68565397    -0.73900
O701        O  0.72194711  0.99136304  0.68409829    -0.62600
O702        O  0.70054451  0.02104915  0.70950702    -0.71000
O703        O  0.71890839  0.02059571  0.72621329    -0.70500
O704        O  0.74087299  0.99106214  0.70018717    -0.61800
O705        O  0.73975560  0.02269522  0.70226732    -0.74300
O706        O  0.72000932  0.98871995  0.72407871    -0.73100
Cu707      Cu  0.71060783  0.00624575  0.69624133     1.04600
Cu708      Cu  0.73055665  0.00576590  0.71376989     1.04300
C709        C  0.70743650  0.98370580  0.71941639     0.93200
C710        C  0.73377428  0.02806901  0.69041772     0.92400
C711        C  0.73482469  0.98650386  0.68806181     0.84500
C712        C  0.70611418  0.02543996  0.72190095     0.90800
N713        N  0.82815466  0.69995830  0.76543677    -0.27300
N714        N  0.82635613  0.71125750  0.77479774    -0.35200
C715        C  0.83825914  0.72043599  0.77370030     0.01000
C716        C  0.84802064  0.71451459  0.76309227     0.07100
C717        C  0.84115796  0.70153040  0.75811858    -0.06000
H718        H  0.83962883  0.73062679  0.78012330     0.07700
H719        H  0.84500246  0.69396236  0.74946055     0.08900
Cu720      Cu  0.80764048  0.71283799  0.78836458     0.44200
Cu721      Cu  0.81245533  0.68348456  0.76229705     0.42000
Cu722      Cu  0.77807069  0.68433126  0.78372893     0.43900
N723        N  0.78964256  0.70995427  0.80266708    -0.34700
N724        N  0.77905550  0.69968055  0.80139923    -0.28900
C725        C  0.77002218  0.70056633  0.81348544    -0.05000
C726        C  0.77520572  0.71193475  0.82281089     0.07200
C727        C  0.78764888  0.71757940  0.81543593     0.01000
H728        H  0.76055450  0.69326461  0.81540506     0.08600
H729        H  0.79511971  0.72633907  0.81913764     0.07700
N730        N  0.78191757  0.66975200  0.76579473    -0.36100
N731        N  0.79479449  0.66928734  0.75847559    -0.28300
C732        C  0.79431479  0.65845658  0.74806623    -0.03600
C733        C  0.78040922  0.65173451  0.74870457     0.05000
C734        C  0.77278025  0.65921506  0.76004331     0.03100
H735        H  0.80342931  0.65578472  0.74051379     0.08200
H736        H  0.76158848  0.65689793  0.76408614     0.07100
O737        O  0.94278811  0.77533851  0.67998041    -0.73000
O738        O  0.97499603  0.75283408  0.70201304    -0.73900
O739        O  0.94307004  0.75346051  0.70280797    -0.62600
O740        O  0.97461168  0.77477484  0.67927655    -0.71000
O741        O  0.97522346  0.79286138  0.69630971    -0.70500
O742        O  0.94358133  0.77172951  0.71967768    -0.61800
O743        O  0.97562586  0.77081859  0.71912096    -0.74300
O744        O  0.94327613  0.79351350  0.69690492    -0.73100
Cu745      Cu  0.95885051  0.76349209  0.69042179     1.04600
Cu746      Cu  0.95946851  0.78285862  0.70860555     1.04300
C747        C  0.93771529  0.78779378  0.68502777     0.93200
C748        C  0.98055452  0.75830905  0.71399309     0.92400
C749        C  0.93808871  0.75944890  0.71481942     0.84500
C750        C  0.98009812  0.78704809  0.68418155     0.90800
N751        N  0.78331781  0.87863370  0.62171513    -0.27300
N752        N  0.79426492  0.87884449  0.63162641    -0.35200
C753        C  0.79294964  0.89115783  0.64017587     0.01000
C754        C  0.78053036  0.89922088  0.63541009     0.07100
C755        C  0.77469064  0.89088208  0.62366305    -0.06000
H756        H  0.80045715  0.89386261  0.64926619     0.07700
H757        H  0.76495622  0.89347592  0.61692667     0.08900
Cu758      Cu  0.81061224  0.86261057  0.63282722     0.44200
Cu759      Cu  0.78089338  0.86160307  0.60611139     0.42000
Cu760      Cu  0.81021599  0.83288341  0.60513168     0.43900
N761        N  0.82650232  0.84590959  0.63165050    -0.34700
N762        N  0.82658349  0.83505707  0.62159272    -0.28900
C763        C  0.83848239  0.82609144  0.62417833    -0.05000
C764        C  0.84625764  0.83158809  0.63649752     0.07200
C765        C  0.83825074  0.84420800  0.64085506     0.01000
H766        H  0.84109705  0.81622973  0.61761615     0.08600
H767        H  0.84065594  0.85171377  0.65003350     0.07700
N768        N  0.79184366  0.83332857  0.59075959    -0.36100
N769        N  0.78111534  0.84360854  0.59138970    -0.28300
C770        C  0.77085591  0.84069105  0.58079155    -0.03600
C771        C  0.77531560  0.82799977  0.57298690     0.05000
C772        C  0.78871397  0.82365590  0.57962579     0.03100
H773        H  0.76106265  0.84758369  0.57870326     0.08200
H774        H  0.79567910  0.81414124  0.57664752     0.07100
O775        O  0.19799011  0.74572100  0.95451747    -0.73000
O776        O  0.22099273  0.77015065  0.92483214    -0.73900
O777        O  0.22033268  0.76827819  0.95665977    -0.62600
O778        O  0.19854826  0.74802645  0.92264096    -0.71000
O779        O  0.18087387  0.76557353  0.92367093    -0.70500
O780        O  0.20281424  0.78599576  0.95699292    -0.61800
O781        O  0.20342376  0.78782965  0.92518593    -0.74300
O782        O  0.18050340  0.76344866  0.95549686    -0.73100
Cu783      Cu  0.21007978  0.75744047  0.93964519     1.04600
Cu784      Cu  0.19129903  0.77632537  0.94037756     1.04300
C785        C  0.18567729  0.75075598  0.95987757     0.93200
C786        C  0.21578500  0.78263126  0.92003243     0.92400
C787        C  0.21490689  0.78036342  0.96225990     0.84500
C788        C  0.18631103  0.75371406  0.91769389     0.90800
N789        N  0.08046127  0.68596615  0.77374092    -0.27300
N790        N  0.08121445  0.69713447  0.78346096    -0.35200
C791        C  0.07017897  0.70705189  0.78054952     0.01000
C792        C  0.06199212  0.70205878  0.76831830     0.07100
C793        C  0.06887081  0.68855282  0.76439847    -0.06000
H794        H  0.06871078  0.71745905  0.78660149     0.07700
H795        H  0.06606726  0.68134081  0.75509820     0.08900
Cu796      Cu  0.09792675  0.69957042  0.79952895     0.44200
Cu797      Cu  0.09628586  0.66854291  0.77241220     0.42000
Cu798      Cu  0.12711112  0.67188478  0.79848444     0.43900
N799        N  0.11621198  0.69982860  0.81398969    -0.34700
N800        N  0.12687014  0.68950441  0.81357049    -0.28900
C801        C  0.13719003  0.69260019  0.82405472    -0.05000
C802        C  0.13290016  0.70557468  0.83154199     0.07200
C803        C  0.11948046  0.70981751  0.82480646     0.01000
H804        H  0.14703816  0.68577446  0.82606643     0.08600
H805        H  0.11262939  0.71951343  0.82742381     0.07700
N806        N  0.12641265  0.65596977  0.78163441    -0.36100
N807        N  0.11518186  0.65446504  0.77212239    -0.28300
C808        C  0.11872406  0.64352712  0.76227598    -0.03600
C809        C  0.13294590  0.63798625  0.76568578     0.05000
C810        C  0.13735717  0.64617755  0.77809455     0.03100
H811        H  0.11165312  0.64021831  0.75303465     0.08200
H812        H  0.14782599  0.64523923  0.78412307     0.07100
N813        N  0.13334412  0.68312141  0.06594556    -0.27300
N814        N  0.12135858  0.69173375  0.06423756    -0.35200
C815        C  0.12319223  0.70045733  0.05211553     0.01000
C816        C  0.13702760  0.69726853  0.04573816     0.07100
C817        C  0.14312379  0.68614159  0.05483667    -0.06000
H818        H  0.11495845  0.70852785  0.04827588     0.07700
H819        H  0.15398291  0.68081543  0.05366868     0.08900
Cu820      Cu  0.10302001  0.69170996  0.07851508     0.44200
Cu821      Cu  0.13564796  0.66781116  0.08353401     0.42000
Cu822      Cu  0.10235896  0.66340901  0.10700076     0.43900
N823        N  0.08633716  0.69034997  0.09461372    -0.34700
N824        N  0.08598888  0.67981873  0.10499526    -0.28900
C825        C  0.07444607  0.68253385  0.11430374    -0.05000
C826        C  0.06710736  0.69548928  0.10960375     0.07200
C827        C  0.07502360  0.70006893  0.09701529     0.01000
H828        H  0.07205244  0.67585455  0.12411030     0.08600
H829        H  0.07308110  0.70996143  0.09027176     0.07700
N830        N  0.12163610  0.65055482  0.10913453    -0.36100
N831        N  0.13402377  0.65256028  0.10123635    -0.28300
C832        C  0.14455738  0.64282017  0.10610810    -0.03600
C833        C  0.13840103  0.63416570  0.11743662     0.05000
C834        C  0.12386124  0.63939205  0.11901153     0.03100
H835        H  0.15570946  0.64179737  0.10143363     0.08200
H836        H  0.11551873  0.63547275  0.12687531     0.07100
O837        O  0.95375341  0.79025853  0.18254716    -0.73000
O838        O  0.98400752  0.76591930  0.16010482    -0.73900
O839        O  0.95223551  0.76796954  0.16029927    -0.62600
O840        O  0.98542571  0.78852425  0.18260346    -0.71000
O841        O  0.98458996  0.77077252  0.19997046    -0.70500
O842        O  0.95139735  0.75029570  0.17775241    -0.61800
O843        O  0.98311728  0.74818446  0.17749178    -0.74300
O844        O  0.95292390  0.77264887  0.20007854    -0.73100
Cu845      Cu  0.96895100  0.77876192  0.17077200     1.04600
Cu846      Cu  0.96802797  0.75985838  0.18943503     1.04300
C847        C  0.94835194  0.78517718  0.19476342     0.93200
C848        C  0.98824765  0.75314029  0.16509750     0.92400
C849        C  0.94636955  0.75603700  0.16563185     0.84500
C850        C  0.99007651  0.78303731  0.19498338     0.90800
N851        N  0.79136823  0.69217591  0.07370267    -0.27300
N852        N  0.80261020  0.70165664  0.07199614    -0.35200
C853        C  0.80105013  0.70879928  0.05884100     0.01000
C854        C  0.78816212  0.70365856  0.05183305     0.07100
C855        C  0.78235112  0.69308340  0.06166182    -0.06000
H856        H  0.80876846  0.71721110  0.05481743     0.07700
H857        H  0.77216671  0.68667168  0.06036580     0.08900
Cu858      Cu  0.81954077  0.70506643  0.08760411     0.44200
Cu859      Cu  0.78865018  0.67842575  0.09231401     0.42000
Cu860      Cu  0.81743739  0.68172505  0.12037811     0.43900
N861        N  0.83495155  0.70620802  0.10500510    -0.34700
N862        N  0.83412458  0.69743285  0.11688862    -0.28900
C863        C  0.84564256  0.70042972  0.12604498    -0.05000
C864        C  0.85425566  0.71168847  0.11969968     0.07200
C865        C  0.84705585  0.71512512  0.10634225     0.01000
H866        H  0.84747552  0.69482121  0.13661966     0.08600
H867        H  0.85047972  0.72328267  0.09806150     0.07700
N868        N  0.79975835  0.66681981  0.12200210    -0.36100
N869        N  0.78930168  0.66542104  0.11162884    -0.28300
C870        C  0.78000036  0.65423839  0.11557645    -0.03600
C871        C  0.78475808  0.64843648  0.12916185     0.05000
C872        C  0.79729453  0.65671540  0.13291017     0.03100
H873        H  0.77058156  0.65049105  0.10895441     0.08200
H874        H  0.80445738  0.65511922  0.14255030     0.07100
N875        N  0.83730967  0.83559971  0.25396159    -0.27300
N876        N  0.83769139  0.84669648  0.24419468    -0.35200
C877        C  0.85022055  0.84550997  0.23593389     0.01000
C878        C  0.85815143  0.83297091  0.24071713     0.07100
C879        C  0.84956676  0.82699527  0.25220050    -0.06000
H880        H  0.85315999  0.85317736  0.22703361     0.07700
H881        H  0.85175256  0.81691870  0.25859631     0.08900
Cu882      Cu  0.82083991  0.86245136  0.24230033     0.44200
Cu883      Cu  0.81977663  0.83229191  0.26863894     0.42000
Cu884      Cu  0.78784734  0.85763286  0.26566051     0.43900
N885        N  0.80293354  0.87712639  0.24264172    -0.34700
N886        N  0.79095136  0.87562520  0.25121175    -0.28900
C887        C  0.78182035  0.88749078  0.24899333    -0.05000
C888        C  0.78837849  0.89682840  0.23844618     0.07200
C889        C  0.80173460  0.88984224  0.23468623     0.01000
H890        H  0.77117099  0.88911112  0.25457819     0.08600
H891        H  0.81017681  0.89381373  0.22696112     0.07700
N892        N  0.78871321  0.83930325  0.28000558    -0.36100
N893        N  0.80056750  0.83044345  0.28137051    -0.28300
C894        C  0.79802000  0.82034800  0.29223037    -0.03600
C895        C  0.78381605  0.82286606  0.29792170     0.05000
C896        C  0.77820609  0.83493630  0.28987486     0.03100
H897        H  0.80597669  0.81184842  0.29574170     0.08200
H898        H  0.76751952  0.84051063  0.29146285     0.07100
O899        O  0.70527322  0.02225302  0.17531086    -0.73000
O900        O  0.73071806  0.99337235  0.19865313    -0.73900
O901        O  0.72809085  0.02513877  0.19697407    -0.62600
O902        O  0.70789879  0.99050913  0.17701797    -0.71000
O903        O  0.72477937  0.99096547  0.15881097    -0.70500
O904        O  0.74531368  0.02561158  0.17909067    -0.61800
O905        O  0.74767936  0.99360750  0.18050672    -0.74300
O906        O  0.72238443  0.02293710  0.15732596    -0.73100
Cu907      Cu  0.71742365  0.00781551  0.18760514     1.04600
Cu908      Cu  0.73565554  0.00830138  0.16830612     1.04300
C909        C  0.70983018  0.02732291  0.16273154     0.93200
C910        C  0.74307463  0.98863507  0.19311424     0.92400
C911        C  0.73976680  0.03101353  0.19115165     0.84500
C912        C  0.71318020  0.98512153  0.16485167     0.90800
N913        N  0.65098642  0.82589799  0.07985144    -0.27300
N914        N  0.66011997  0.83738872  0.07794218    -0.35200
C915        C  0.66769100  0.83557496  0.06510780     0.01000
C916        C  0.66318872  0.82227489  0.05845418     0.07100
C917        C  0.65251648  0.81646019  0.06818441    -0.06000
H918        H  0.67604946  0.84338999  0.06115020     0.07700
H919        H  0.64636479  0.80609144  0.06702441     0.08900
Cu920      Cu  0.66252808  0.85515487  0.09262237     0.44200
Cu921      Cu  0.63713828  0.82348420  0.09836996     0.42000
Cu922      Cu  0.63911028  0.85417088  0.12484938     0.43900
N923        N  0.66273802  0.87174614  0.10879071    -0.34700
N924        N  0.65403882  0.87119564  0.12070803    -0.28900
C925        C  0.65643991  0.88334700  0.12918687    -0.05000
C926        C  0.66722375  0.89214942  0.12229398     0.07200
C927        C  0.67097154  0.88435585  0.10933701     0.01000
H928        H  0.65069709  0.88543680  0.13963241     0.08600
H929        H  0.67902855  0.88753428  0.10087914     0.07700
N930        N  0.62451307  0.83648672  0.12685235    -0.36100
N931        N  0.62404173  0.82499641  0.11751085    -0.28300
C932        C  0.61317310  0.81557923  0.12195199    -0.03600
C933        C  0.60641300  0.82158494  0.13455173     0.05000
C934        C  0.61384291  0.83485539  0.13731818     0.03100
H935        H  0.60996371  0.80549306  0.11604098     0.08200
H936        H  0.61155757  0.84285194  0.14615146     0.07100
N937        N  0.63455770  0.12740163  0.10932743    -0.27300
N938        N  0.64360837  0.12706986  0.09764857    -0.35200
C939        C  0.65296776  0.11529290  0.09896131     0.01000
C940        C  0.64972527  0.10782125  0.11219718     0.07100
C941        C  0.63787869  0.11583078  0.11841321    -0.06000
H942        H  0.66178872  0.11273874  0.09104717     0.07700
H943        H  0.63257194  0.11394861  0.12912833     0.08900
Cu944      Cu  0.64381293  0.14356934  0.08135159     0.44200
Cu945      Cu  0.61953932  0.14468524  0.11306252     0.42000
Cu946      Cu  0.61909233  0.17557903  0.08617751     0.43900
N947        N  0.64276814  0.16156333  0.06673562    -0.34700
N948        N  0.63362117  0.17315550  0.06835392    -0.28900
C949        C  0.63589612  0.18288025  0.05708846    -0.05000
C950        C  0.64709896  0.17716253  0.04794691     0.07200
C951        C  0.65117472  0.16362290  0.05444898     0.01000
H952        H  0.63010497  0.19351345  0.05594145     0.08600
H953        H  0.65964550  0.15579486  0.05061328     0.07700
N954        N  0.60659323  0.17518768  0.10560960    -0.36100
N955        N  0.60674744  0.16391805  0.11523375    -0.28300
C956        C  0.59724191  0.16698595  0.12645529    -0.03600
C957        C  0.59076263  0.18086449  0.12379815     0.05000
C958        C  0.59698721  0.18577576  0.11049079     0.03100
H959        H  0.59518358  0.15955867  0.13580326     0.08200
H960        H  0.59441400  0.19604308  0.10453305     0.07100
O961        O  0.72961736  0.24923897  0.92563783    -0.73000
O962        O  0.70879983  0.22560173  0.95762589    -0.73900
O963        O  0.70841434  0.22576517  0.92597167    -0.62600
O964        O  0.73026910  0.24885433  0.95743209    -0.71000
O965        O  0.71195789  0.26573149  0.95823722    -0.70500
O966        O  0.68998450  0.24254047  0.92619843    -0.61800
O967        O  0.69036787  0.24239387  0.95787726    -0.74300
O968        O  0.71125907  0.26609369  0.92629185    -0.73100
Cu969      Cu  0.71992586  0.23681148  0.94165027     1.04600
Cu970      Cu  0.70027283  0.25480922  0.94216504     1.04300
C971        C  0.72357211  0.26131422  0.92072623     0.93200
C972        C  0.69623456  0.23025734  0.96277844     0.92400
C973        C  0.69575119  0.23038610  0.92110406     0.84500
C974        C  0.72457206  0.26077828  0.96303181     0.90800
N975        N  0.62954104  0.16542297  0.82232044    -0.27300
N976        N  0.63851737  0.15383961  0.82469092    -0.35200
C977        C  0.64708071  0.15660450  0.83671774     0.01000
C978        C  0.64332305  0.17066178  0.84225838     0.07100
C979        C  0.63210692  0.17588320  0.83282792    -0.06000
H980        H  0.65555258  0.14897353  0.84091308     0.07700
H981        H  0.62653205  0.18668298  0.83321115     0.08900
Cu982      Cu  0.63939977  0.13527320  0.81096740     0.44200
Cu983      Cu  0.61464108  0.16668478  0.80460119     0.42000
Cu984      Cu  0.61238655  0.13441427  0.78041019     0.43900
N985        N  0.63926294  0.11906555  0.79453814    -0.34700
N986        N  0.62947580  0.11871722  0.78345756    -0.28900
C987        C  0.63315718  0.10742272  0.77419520    -0.05000
C988        C  0.64590691  0.10028803  0.77967968     0.07200
C989        C  0.64941613  0.10803327  0.79263452     0.01000
H990        H  0.62728833  0.10508340  0.76388629     0.08600
H991        H  0.65885588  0.10613009  0.79998746     0.07700
N992        N  0.59827300  0.15299326  0.77851276    -0.36100
N993        N  0.59965272  0.16506186  0.78699815    -0.28300
C994        C  0.58987502  0.17560628  0.78236618    -0.03600
C995        C  0.58179374  0.16987670  0.77047518     0.05000
C996        C  0.58736684  0.15546931  0.76837857     0.03100
H997        H  0.58873743  0.18663673  0.78731918     0.08200
H998        H  0.58413880  0.14759099  0.75976412     0.07100
N999        N  0.77128993  0.32696696  0.81155952    -0.27300
N1000       N  0.78370394  0.31916867  0.81398325    -0.35200
C1001       C  0.78163715  0.31004122  0.82570249     0.01000
C1002       C  0.76721420  0.31208330  0.83107668     0.07100
C1003       C  0.76097453  0.32296414  0.82181024    -0.06000
H1004       H  0.79023629  0.30264746  0.83003744     0.07700
H1005       H  0.74978242  0.32764774  0.82239157     0.08900
Cu1006     Cu  0.80333776  0.32052156  0.80184091     0.44200
Cu1007     Cu  0.76893414  0.34269527  0.79450708     0.42000
Cu1008     Cu  0.80244411  0.34535002  0.77150396     0.43900
N1009       N  0.82119839  0.32257204  0.78732464    -0.34700
N1010       N  0.82073371  0.33189400  0.77589277    -0.28900
C1011       C  0.83320053  0.33019013  0.76765949    -0.05000
C1012       C  0.84206027  0.31912715  0.77418613     0.07200
C1013       C  0.83401875  0.31459937  0.78672481     0.01000
H1014       H  0.83521852  0.33617644  0.75734138     0.08600
H1015       H  0.83687292  0.30576499  0.79452615     0.07700
N1016       N  0.78351538  0.35829421  0.76849404    -0.36100
N1017       N  0.77115978  0.35746138  0.77662775    -0.28300
C1018       C  0.76149456  0.36814670  0.77195179    -0.03600
C1019       C  0.76825322  0.37611481  0.76046576     0.05000
C1020       C  0.78214417  0.36948697  0.75857065     0.03100
H1021       H  0.75071547  0.37044072  0.77704592     0.08200
H1022       H  0.79084447  0.37278866  0.75081171     0.07100
N1023       N  0.26717933  0.86886285  0.76052992    -0.27300
N1024       N  0.25777551  0.86992397  0.77188408    -0.35200
C1025       C  0.24857372  0.88171131  0.76962313     0.01000
C1026       C  0.25243888  0.88849800  0.75616789     0.07100
C1027       C  0.26427695  0.87992429  0.75073725    -0.06000
H1028       H  0.24004794  0.88527816  0.77747418     0.07700
H1029       H  0.27083692  0.88190251  0.74076241     0.08900
Cu1030     Cu  0.25916670  0.85608797  0.79043078     0.44200
Cu1031     Cu  0.28450821  0.85342465  0.75960962     0.42000
Cu1032     Cu  0.29169860  0.83071025  0.79225723     0.43900
N1033       N  0.26359238  0.84151471  0.80792941    -0.34700
N1034       N  0.27527431  0.83235283  0.80864890    -0.28900
C1035       C  0.27442779  0.82432351  0.82135996    -0.05000
C1036       C  0.26161084  0.82866471  0.82906930     0.07200
C1037       C  0.25506163  0.83960369  0.82015804     0.01000
H1038       H  0.28258181  0.81593481  0.82465577     0.08600
H1039       H  0.24467148  0.84557289  0.82216590     0.07700
N1040       N  0.30535187  0.83062125  0.77344861    -0.36100
N1041       N  0.30225969  0.83854815  0.76132363    -0.28300
C1042       C  0.31269895  0.83574646  0.75085199    -0.03600
C1043       C  0.32297283  0.82569310  0.75669477     0.05000
C1044       C  0.31803520  0.82270878  0.77108067     0.03100
H1045       H  0.31296647  0.84092087  0.73990177     0.08200
H1046       H  0.32314494  0.81519848  0.77913407     0.07100
O1047       O  0.96492141  0.24790096  0.69030408    -0.73000
O1048       O  0.93251053  0.27064022  0.71204458    -0.73900
O1049       O  0.96428638  0.27135623  0.71161747    -0.62600
O1050       O  0.93305763  0.24725251  0.69056807    -0.71000
O1051       O  0.93336801  0.23017121  0.70860464    -0.70500
O1052       O  0.96462397  0.25463871  0.73000635    -0.61800
O1053       O  0.93281426  0.25369235  0.73020601    -0.74300
O1054       O  0.96529497  0.23103108  0.70853844    -0.73100
Cu1055     Cu  0.94864682  0.25985118  0.70050248     1.04600
Cu1056     Cu  0.94903824  0.24178603  0.71997710     1.04300
C1057       C  0.97036098  0.23591621  0.69607455     0.93200
C1058       C  0.92757069  0.26582332  0.72458910     0.92400
C1059       C  0.96944555  0.26681552  0.72415292     0.84500
C1060       C  0.92823995  0.23495743  0.69611862     0.90800
N1061       N  0.79151948  0.12891267  0.61952203    -0.27300
N1062       N  0.80248639  0.12829363  0.62942287    -0.35200
C1063       C  0.79979811  0.11709476  0.63910312     0.01000
C1064       C  0.78642094  0.11024655  0.63517904     0.07100
C1065       C  0.78155570  0.11805184  0.62262054    -0.06000
H1066       H  0.80698834  0.11444321  0.64847434     0.07700
H1067       H  0.77125835  0.11641469  0.61647378     0.08900
Cu1068     Cu  0.81999925  0.14336594  0.63027511     0.44200
Cu1069     Cu  0.78981563  0.14546632  0.60324836     0.42000
Cu1070     Cu  0.81932936  0.17331759  0.60303761     0.43900
N1071       N  0.83526704  0.16072845  0.63006556    -0.34700
N1072       N  0.83511935  0.17162233  0.62004562    -0.28900
C1073       C  0.84561379  0.18175362  0.62370348    -0.05000
C1074       C  0.85270370  0.17710129  0.63677212     0.07200
C1075       C  0.84582194  0.16362920  0.64038040     0.01000
H1076       H  0.84741547  0.19203434  0.61754740     0.08600
H1077       H  0.84779433  0.15669761  0.65011603     0.07700
N1078       N  0.80070285  0.17416656  0.58909494    -0.36100
N1079       N  0.78975079  0.16420947  0.58941543    -0.28300
C1080       C  0.77899010  0.16845746  0.57972343    -0.03600
C1081       C  0.78343072  0.18166899  0.57285962     0.05000
C1082       C  0.79727867  0.18491346  0.57907068     0.03100
H1083       H  0.76877214  0.16227439  0.57771001     0.08200
H1084       H  0.80424302  0.19454616  0.57670685     0.07100
N1085       N  0.08170851  0.18271531  0.63795192    -0.27300
N1086       N  0.08248245  0.17329245  0.64935895    -0.35200
C1087       C  0.07021534  0.17523694  0.65800682     0.01000
C1088       C  0.06132178  0.18649014  0.65176517     0.07100
C1089       C  0.06905170  0.19086352  0.63902878    -0.06000
H1090       H  0.06815927  0.16916479  0.66828002     0.07700
H1091       H  0.06588360  0.19948109  0.63110641     0.08900
Cu1092     Cu  0.10060433  0.15864841  0.65262368     0.44200
Cu1093     Cu  0.09814944  0.18516740  0.62171885     0.42000
Cu1094     Cu  0.13227799  0.16489246  0.62745085     0.43900
N1095       N  0.11993114  0.14524306  0.65207458    -0.34700
N1096       N  0.13136863  0.14771765  0.64300348    -0.28900
C1097       C  0.14145438  0.13657023  0.64449154    -0.05000
C1098       C  0.13619998  0.12638348  0.65498555     0.07200
C1099       C  0.12250932  0.13238555  0.65960550     0.01000
H1100       H  0.15156327  0.13573685  0.63786305     0.08600
H1101       H  0.11464809  0.12753651  0.66742488     0.07700
N1102       N  0.12963206  0.18062251  0.61063238    -0.36100
N1103       N  0.11681033  0.18764872  0.60809838    -0.28300
C1104       C  0.11830934  0.19638004  0.59591367    -0.03600
C1105       C  0.13284798  0.19487098  0.59061947     0.05000
C1106       C  0.13970670  0.18480213  0.60025048     0.03100
H1107       H  0.10949245  0.20336424  0.59131252     0.08200
H1108       H  0.15103139  0.18045584  0.59949828     0.07100
O1109       O  0.21872828  0.02116217  0.70185952    -0.73000
O1110       O  0.19450153  0.99203627  0.67816721    -0.73900
O1111       O  0.19561133  0.02401103  0.68020328    -0.62600
O1112       O  0.21729386  0.98926586  0.69991114    -0.71000
O1113       O  0.20036118  0.98938497  0.71808657    -0.70500
O1114       O  0.17833303  0.02297551  0.69800377    -0.61800
O1115       O  0.17755670  0.99117423  0.69631131    -0.74300
O1116       O  0.20139281  0.02111378  0.71965194    -0.73100
Cu1117     Cu  0.20713272  0.00664744  0.68938931     1.04600
Cu1118     Cu  0.18881933  0.00616626  0.70861478     1.04300
C1119       C  0.21387873  0.02584374  0.71447559     0.93200
C1120       C  0.18238664  0.98671517  0.68359679     0.92400
C1121       C  0.18351022  0.02902733  0.68612587     0.84500
C1122       C  0.21212564  0.98378479  0.71210270     0.90800
N1123       N  0.09331253  0.83129585  0.62400547    -0.27300
N1124       N  0.09110588  0.84389373  0.63150380    -0.35200
C1125       C  0.07838946  0.84286092  0.63939906     0.01000
C1126       C  0.07216498  0.82889755  0.63684038     0.07100
C1127       C  0.08194834  0.82186609  0.62695721    -0.06000
H1128       H  0.07409756  0.85175263  0.64645063     0.07700
H1129       H  0.08109332  0.81064995  0.62241883     0.08900
Cu1130     Cu  0.10518733  0.86207742  0.63144522     0.44200
Cu1131     Cu  0.11189809  0.82734576  0.61058607     0.42000
Cu1132     Cu  0.13844222  0.85815531  0.61016102     0.43900
N1133       N  0.12107140  0.87865169  0.63023556    -0.34700
N1134       N  0.13341396  0.87721099  0.62223362    -0.28900
C1135       C  0.14189029  0.88947331  0.62406663    -0.05000
C1136       C  0.13452407  0.89914668  0.63378673     0.07200
C1137       C  0.12131124  0.89186058  0.63745331     0.01000
H1138       H  0.15287235  0.89086495  0.61913504     0.08600
H1139       H  0.11261402  0.89563850  0.64501512     0.07700
N1140       N  0.14159735  0.83817942  0.59895900    -0.36100
N1141       N  0.13201472  0.82690922  0.59892827    -0.28300
C1142       C  0.13738324  0.81596767  0.59000540    -0.03600
C1143       C  0.15099301  0.82063588  0.58411013     0.05000
C1144       C  0.15327144  0.83476595  0.59012325     0.03100
H1145       H  0.13151902  0.80564132  0.58759864     0.08200
H1146       H  0.16258594  0.84222954  0.58809958     0.07100
N1147       N  0.27013071  0.82799224  0.07713792    -0.27300
N1148       N  0.26022082  0.83902510  0.07633797    -0.35200
C1149       C  0.25163405  0.83703739  0.06414556     0.01000
C1150       C  0.25636958  0.82411571  0.05677802     0.07100
C1151       C  0.26809947  0.81867490  0.06548399    -0.06000
H1152       H  0.24291978  0.84477573  0.06073926     0.07700
H1153       H  0.27507651  0.80897187  0.06331942     0.08900
Cu1154     Cu  0.25960951  0.85703820  0.09104956     0.44200
Cu1155     Cu  0.28723930  0.82700622  0.09287390     0.42000
Cu1156     Cu  0.29148497  0.85981069  0.11597388     0.43900
N1157       N  0.26226031  0.87402761  0.10668579    -0.34700
N1158       N  0.27396960  0.87504517  0.11565564    -0.28900
C1159       C  0.27221315  0.88699317  0.12464986    -0.05000
C1160       C  0.25868319  0.89392447  0.12124917     0.07200
C1161       C  0.25271823  0.88534131  0.10973605     0.01000
H1162       H  0.28022247  0.89020402  0.13312380     0.08600
H1163       H  0.24211168  0.88694190  0.10409877     0.07700
N1164       N  0.30682592  0.84237799  0.11557515    -0.36100
N1165       N  0.30511376  0.83014300  0.10742073    -0.28300
C1166       C  0.31671522  0.82080599  0.11001351    -0.03600
C1167       C  0.32623451  0.82750054  0.12030909     0.05000
C1168       C  0.31955222  0.84120199  0.12353876     0.03100
H1169       H  0.31809622  0.80998023  0.10470112     0.08200
H1170       H  0.32340359  0.84959032  0.13137412     0.07100
O1171       O  0.21718795  0.98809743  0.18352642    -0.73000
O1172       O  0.19590893  0.02132450  0.20520695    -0.73900
O1173       O  0.19551215  0.98961251  0.20678706    -0.62600
O1174       O  0.21741443  0.01997034  0.18168119    -0.71000
O1175       O  0.19921597  0.01925015  0.16481371    -0.70500
O1176       O  0.17733897  0.98933033  0.18988265    -0.61800
O1177       O  0.17795091  0.02094872  0.18802942    -0.74300
O1178       O  0.19889428  0.98752940  0.16675734    -0.73100
Cu1179     Cu  0.20717742  0.00477762  0.19488548     1.04600
Cu1180     Cu  0.18773659  0.00422894  0.17679877     1.04300
C1181       C  0.21134327  0.98246355  0.17176461     0.93200
C1182       C  0.18356249  0.02639669  0.19998407     0.92400
C1183       C  0.18282522  0.98474853  0.20227220     0.84500
C1184       C  0.21173979  0.02445983  0.16930377     0.90800
N1185       N  0.08489565  0.84225028  0.27230363    -0.27300
N1186       N  0.08178669  0.85479387  0.26503138    -0.35200
C1187       C  0.07037319  0.85242735  0.25556705     0.01000
C1188       C  0.06596879  0.83759286  0.25681408     0.07100
C1189       C  0.07544023  0.83149949  0.26761122    -0.06000
H1190       H  0.06589718  0.86090729  0.24813119     0.07700
H1191       H  0.07577477  0.82000731  0.27150918     0.08900
Cu1192     Cu  0.09405141  0.87415756  0.26687764     0.44200
Cu1193     Cu  0.10217688  0.84047248  0.28797212     0.42000
Cu1194     Cu  0.12178333  0.87535621  0.29578516     0.43900
N1195       N  0.11040924  0.89027415  0.26789298    -0.34700
N1196       N  0.12058221  0.89087327  0.27857377    -0.28900
C1197       C  0.13061733  0.90153943  0.27512497    -0.05000
C1198       C  0.12659724  0.90795608  0.26152259     0.07200
C1199       C  0.11365634  0.90047222  0.25734238     0.01000
H1200       H  0.14043959  0.90389257  0.28178239     0.08600
H1201       H  0.10733877  0.90176624  0.24710734     0.07700
N1202       N  0.12499890  0.85572238  0.30778996    -0.36100
N1203       N  0.11872174  0.84274776  0.30433570    -0.28300
C1204       C  0.12467163  0.83194222  0.31308917    -0.03600
C1205       C  0.13505485  0.83847731  0.32260129     0.05000
C1206       C  0.13487434  0.85357834  0.31894859     0.03100
H1207       H  0.12160018  0.82021270  0.31261168     0.08200
H1208       H  0.14187428  0.86229271  0.32361050     0.07100
N1209       N  0.27951496  0.16675828  0.06279057    -0.27300
N1210       N  0.27038731  0.15514898  0.06180314    -0.35200
C1211       C  0.26153308  0.15686172  0.04978322     0.01000
C1212       C  0.26514285  0.17024191  0.04272135     0.07100
C1213       C  0.27666429  0.17618427  0.05135055    -0.06000
H1214       H  0.25287024  0.14899417  0.04672570     0.07700
H1215       H  0.28242548  0.18670914  0.04968705     0.08900
Cu1216     Cu  0.26941729  0.13765472  0.07701469     0.44200
Cu1217     Cu  0.29513509  0.16945010  0.07990410     0.42000
Cu1218     Cu  0.29748583  0.13770789  0.10529566     0.43900
N1219       N  0.26997737  0.12203068  0.09413973    -0.34700
N1220       N  0.28051708  0.12202397  0.10448357    -0.28900
C1221       C  0.27759062  0.11121092  0.11451472    -0.05000
C1222       C  0.26450181  0.10395544  0.11032733     0.07200
C1223       C  0.26001276  0.11117663  0.09729178     0.01000
H1224       H  0.28429284  0.10922490  0.12439413     0.08600
H1225       H  0.25013164  0.10894152  0.09066838     0.07700
N1226       N  0.31118330  0.15630173  0.10656078    -0.36100
N1227       N  0.31000329  0.16823893  0.09783504    -0.28300
C1228       C  0.31976839  0.17871697  0.10257371    -0.03600
C1229       C  0.32752958  0.17298306  0.11476026     0.05000
C1230       C  0.32178792  0.15874704  0.11690893     0.03100
H1231       H  0.32118068  0.18963128  0.09745773     0.08200
H1232       H  0.32474669  0.15087701  0.12565614     0.07100
N1233       N  0.28087189  0.12930099  0.76999900    -0.27300
N1234       N  0.27177947  0.12810869  0.78159355    -0.35200
C1235       C  0.26391708  0.11534382  0.78039317     0.01000
C1236       C  0.26816933  0.10808344  0.76731352     0.07100
C1237       C  0.27904718  0.11729325  0.76108240    -0.06000
H1238       H  0.25531784  0.11201520  0.78823321     0.07700
H1239       H  0.28464938  0.11588827  0.75044319     0.08900
Cu1240     Cu  0.26912348  0.14463826  0.79761032     0.44200
Cu1241     Cu  0.29389311  0.14810033  0.76599506     0.42000
Cu1242     Cu  0.28862713  0.17947334  0.79179574     0.43900
N1243       N  0.26740885  0.16284310  0.81185040    -0.34700
N1244       N  0.27456540  0.17563993  0.80985278    -0.28900
C1245       C  0.27106756  0.18504589  0.82112091    -0.05000
C1246       C  0.26114667  0.17781294  0.83065124     0.07200
C1247       C  0.25911657  0.16375027  0.82435202     0.01000
H1248       H  0.27528253  0.19637054  0.82212705     0.08600
H1249       H  0.25222647  0.15471524  0.82854629     0.07700
N1250       N  0.30264219  0.17997548  0.77329779    -0.36100
N1251       N  0.30466668  0.16859489  0.76402711    -0.28300
C1252       C  0.31502126  0.17240221  0.75378716    -0.03600
C1253       C  0.31985195  0.18691386  0.75674080     0.05000
C1254       C  0.31164882  0.19131289  0.76920892     0.03100
H1255       H  0.31893303  0.16491692  0.74509262     0.08200
H1256       H  0.31243930  0.20177518  0.77527203     0.07100
O1257       O  0.17184871  0.23729438  0.95584609    -0.73000
O1258       O  0.19556493  0.21568978  0.92374921    -0.73900
O1259       O  0.19531515  0.21525530  0.95566864    -0.62600
O1260       O  0.17196556  0.23738265  0.92381239    -0.71000
O1261       O  0.18909818  0.25533275  0.92404932    -0.70500
O1262       O  0.21211672  0.23352131  0.95576131    -0.61800
O1263       O  0.21242564  0.23390057  0.92424615    -0.74300
O1264       O  0.18904775  0.25518409  0.95560408    -0.73100
Cu1265     Cu  0.18304155  0.22573575  0.93976913     1.04600
Cu1266     Cu  0.20120273  0.24508282  0.93993014     1.04300
C1267       C  0.17691693  0.24975473  0.96084025     0.93200
C1268       C  0.20776711  0.22148696  0.91892284     0.92400
C1269       C  0.20746701  0.22090870  0.96071388     0.84500
C1270       C  0.17696084  0.24985602  0.91881324     0.90800
N1271       N  0.12438935  0.31866753  0.81451237    -0.27300
N1272       N  0.11117612  0.31252004  0.81708131    -0.35200
C1273       C  0.11211098  0.30389385  0.82942759     0.01000
C1274       C  0.12661714  0.30476088  0.83493281     0.07100
C1275       C  0.13403495  0.31424115  0.82515246    -0.06000
H1276       H  0.10291076  0.29747914  0.83400565     0.07700
H1277       H  0.14571300  0.31744936  0.82547305     0.08900
Cu1278     Cu  0.09281670  0.31582697  0.80325567     0.44200
Cu1279     Cu  0.12920636  0.33251782  0.79657931     0.42000
Cu1280     Cu  0.09970915  0.33827239  0.76987561     0.43900
N1281       N  0.07715231  0.31932381  0.78649196    -0.34700
N1282       N  0.07967732  0.32721800  0.77423601    -0.28900
C1283       C  0.06765811  0.32618737  0.76521196    -0.05000
C1284       C  0.05699772  0.31714880  0.77207571     0.07200
C1285       C  0.06349750  0.31309007  0.78560587     0.01000
H1286       H  0.06704506  0.33126924  0.75424675     0.08600
H1287       H  0.05901630  0.30561414  0.79400607     0.07700
N1288       N  0.12035772  0.34897708  0.76869240    -0.36100
N1289       N  0.13121721  0.34687386  0.77850758    -0.28300
C1290       C  0.14259051  0.35625467  0.77537846    -0.03600
C1291       C  0.13870782  0.36481510  0.76297887     0.05000
C1292       C  0.12451948  0.35974996  0.75903708     0.03100
H1293       H  0.15259701  0.35723032  0.78212499     0.08200
H1294       H  0.11742865  0.36386339  0.75012244     0.07100
N1295       N  0.12291741  0.32134076  0.06323251    -0.27300
N1296       N  0.11003694  0.31490079  0.05989748    -0.35200
C1297       C  0.11205181  0.30571830  0.04816181     0.01000
C1298       C  0.12695773  0.30638231  0.04382747     0.07100
C1299       C  0.13349063  0.31647723  0.05365476    -0.06000
H1300       H  0.10322353  0.29909570  0.04319418     0.07700
H1301       H  0.14510235  0.31990561  0.05404017     0.08900
Cu1302     Cu  0.09037671  0.31844564  0.07161580     0.44200
Cu1303     Cu  0.12546163  0.33635108  0.08064467     0.42000
Cu1304     Cu  0.09129439  0.34652205  0.10042215     0.43900
N1305       N  0.07270786  0.32254996  0.08600381    -0.34700
N1306       N  0.07302454  0.33292142  0.09653034    -0.28900
C1307       C  0.06073733  0.33162643  0.10510320    -0.05000
C1308       C  0.05221305  0.31975269  0.09979573     0.07200
C1309       C  0.06020367  0.31435005  0.08757554     0.01000
H1310       H  0.05883200  0.33820048  0.11508916     0.08600
H1311       H  0.05772914  0.30459022  0.08084932     0.07700
N1312       N  0.11181137  0.35656616  0.10395095    -0.36100
N1313       N  0.12437960  0.35243814  0.09723454    -0.28300
C1314       C  0.13569876  0.36092179  0.10233718    -0.03600
C1315       C  0.12991536  0.37096630  0.11263336     0.05000
C1316       C  0.11474599  0.36790115  0.11337688     0.03100
H1317       H  0.14717541  0.36013938  0.09847052     0.08200
H1318       H  0.10644480  0.37342199  0.12031499     0.07100
N1319       N  0.12290705  0.12888768  0.26583420    -0.27300
N1320       N  0.11433501  0.13036289  0.25388356    -0.35200
C1321       C  0.11772235  0.11939854  0.24413394     0.01000
C1322       C  0.12906237  0.11058797  0.25019976     0.07100
C1323       C  0.13201703  0.11696932  0.26401619    -0.06000
H1324       H  0.11242844  0.11817339  0.23333051     0.07700
H1325       H  0.14053633  0.11361742  0.27196049     0.08900
Cu1326     Cu  0.09921408  0.14781001  0.25084319     0.44200
Cu1327     Cu  0.12283112  0.14392802  0.28337196     0.42000
Cu1328     Cu  0.10069397  0.17769394  0.27818538     0.43900
N1329       N  0.08560043  0.16670584  0.25018239    -0.34700
N1330       N  0.08611904  0.17759930  0.26019042    -0.28900
C1331       C  0.07572864  0.18802295  0.25677629    -0.05000
C1332       C  0.06827700  0.18351374  0.24394193     0.07200
C1333       C  0.07489871  0.16992592  0.24009062     0.01000
H1334       H  0.07382482  0.19814027  0.26319912     0.08600
H1335       H  0.07201212  0.16270700  0.23081453     0.07700
N1336       N  0.11586141  0.17466683  0.29543605    -0.36100
N1337       N  0.12342685  0.16207137  0.29768407    -0.28300
C1338       C  0.13240398  0.16375247  0.30961970    -0.03600
C1339       C  0.13055997  0.17818213  0.31498828     0.05000
C1340       C  0.11998645  0.18479705  0.30576079     0.03100
H1341       H  0.14019315  0.15532627  0.31364514     0.08200
H1342       H  0.11569084  0.19615944  0.30641752     0.07100
N1343       N  0.82563877  0.31954116  0.11289664    -0.27300
N1344       N  0.82550955  0.30941922  0.10210010    -0.35200
C1345       C  0.83799586  0.30091187  0.10315845     0.01000
C1346       C  0.84643555  0.30595028  0.11521682     0.07100
C1347       C  0.83815453  0.31779172  0.12107412    -0.06000
H1348       H  0.84068058  0.29175781  0.09566421     0.07700
H1349       H  0.84081259  0.32454230  0.13075772     0.08900
Cu1350     Cu  0.80822584  0.30792446  0.08650298     0.44200
Cu1351     Cu  0.80887560  0.33538183  0.11616940     0.42000
Cu1352     Cu  0.77742923  0.33475301  0.09071820     0.43900
N1353       N  0.79010021  0.30953890  0.07187546    -0.34700
N1354       N  0.77892079  0.31921266  0.07339638    -0.28900
C1355       C  0.76937271  0.31754678  0.06185997    -0.05000
C1356       C  0.77474985  0.30625798  0.05252595     0.07200
C1357       C  0.78794077  0.30147448  0.05935006     0.01000
H1358       H  0.75928890  0.32417019  0.06043224     0.08600
H1359       H  0.79558274  0.29284446  0.05551811     0.07700
N1360       N  0.77979068  0.35048507  0.10774432    -0.36100
N1361       N  0.79148201  0.35087415  0.11681444    -0.28300
C1362       C  0.79023521  0.36288640  0.12585368    -0.03600
C1363       C  0.77705447  0.37040591  0.12240089     0.05000
C1364       C  0.77069981  0.36217074  0.11089407     0.03100
H1365       H  0.79834576  0.36589827  0.13432007     0.08200
H1366       H  0.76045192  0.36472933  0.10493090     0.07100
O1367       O  0.94273307  0.24781385  0.15827366    -0.73000
O1368       O  0.97681765  0.22804083  0.18022231    -0.73900
O1369       O  0.94475766  0.22644828  0.18145918    -0.62600
O1370       O  0.97438543  0.24955184  0.15691394    -0.71000
O1371       O  0.97427057  0.26778631  0.17379340    -0.70500
O1372       O  0.94457373  0.24478431  0.19823740    -0.61800
O1373       O  0.97650988  0.24618551  0.19718805    -0.74300
O1374       O  0.94260703  0.26621497  0.17496807    -0.73100
Cu1375     Cu  0.95974227  0.23729152  0.16867708     1.04600
Cu1376     Cu  0.95952319  0.25684378  0.18666425     1.04300
C1377       C  0.93724322  0.26015158  0.16316724     0.93200
C1378       C  0.98215114  0.23399049  0.19209125     0.92400
C1379       C  0.93955835  0.23224591  0.19348249     0.84500
C1380       C  0.97878837  0.26245524  0.16130320     0.90800
N1381       N  0.82847721  0.18604844  0.25726963    -0.27300
N1382       N  0.82909558  0.17496925  0.24746885    -0.35200
C1383       C  0.84140668  0.17644659  0.23901947     0.01000
C1384       C  0.84901059  0.18919169  0.24350876     0.07100
C1385       C  0.84050814  0.19495311  0.25524982    -0.06000
H1386       H  0.84429722  0.16888640  0.23000199     0.07700
H1387       H  0.84253855  0.20516543  0.26145633     0.08900
Cu1388     Cu  0.81268672  0.15902960  0.24440683     0.44200
Cu1389     Cu  0.81048462  0.18872683  0.27189152     0.42000
Cu1390     Cu  0.77838936  0.16404353  0.26388643     0.43900
N1391       N  0.79466850  0.14487262  0.24161888    -0.34700
N1392       N  0.78184487  0.14679987  0.24874057    -0.28900
C1393       C  0.77255857  0.13550617  0.24519750    -0.05000
C1394       C  0.77990798  0.12596199  0.23530472     0.07200
C1395       C  0.79391330  0.13235690  0.23326616     0.01000
H1396       H  0.76137613  0.13428671  0.24970789     0.08600
H1397       H  0.80309534  0.12803217  0.22661102     0.07700
N1398       N  0.77897926  0.17970083  0.28097893    -0.36100
N1399       N  0.79066295  0.18821469  0.28421152    -0.28300
C1400       C  0.78775458  0.19578759  0.29690466    -0.03600
C1401       C  0.77355899  0.19189718  0.30187337     0.05000
C1402       C  0.76832246  0.18173866  0.29143352     0.03100
H1403       H  0.79553650  0.20337930  0.30223034     0.08200
H1404       H  0.75785118  0.17565847  0.29179024     0.07100
C1405       C  0.89246515  0.22383535  0.24373927    -0.17800
C1406       C  0.90531311  0.22958694  0.23684438    -0.20000
C1407       C  0.90986886  0.22428550  0.22276275     0.20600
C1408       C  0.90137428  0.21312926  0.21551327    -0.02900
C1409       C  0.88836941  0.20739713  0.22243020    -0.06000
C1410       C  0.88391878  0.21272344  0.23664362     0.20900
C1411       C  0.87982135  0.19635529  0.21510233     0.19100
C1412       C  0.88423695  0.19119811  0.20092587    -0.17500
C1413       C  0.89714448  0.19683327  0.19409778    -0.19700
C1414       C  0.90581227  0.20775853  0.20131511     0.20600
C1415       C  0.91869427  0.21357810  0.19447506    -0.32700
C1416       C  0.92708264  0.22489114  0.20152282     0.01300
C1417       C  0.92264292  0.23009944  0.21571958    -0.24100
C1418       C  0.87104447  0.20681135  0.24351117    -0.28600
C1419       C  0.86255635  0.19564802  0.23632907     0.06900
C1420       C  0.86701069  0.19061411  0.22205688    -0.27300
H1421       H  0.88920828  0.22808991  0.25462734     0.11600
H1422       H  0.91169236  0.23819321  0.24253207     0.12800
H1423       H  0.87773016  0.18275503  0.19513531     0.11900
H1424       H  0.90033330  0.19266282  0.18315711     0.11100
H1425       H  0.92190510  0.20962848  0.18345218     0.16500
H1426       H  0.92899923  0.23886048  0.22120694     0.12400
H1427       H  0.86776032  0.21079668  0.25448805     0.15300
H1428       H  0.86048474  0.18226973  0.21619033     0.15000
C1429       C  0.89630473  0.25816510  0.12584886    -0.17800
C1430       C  0.88367382  0.26459397  0.11906620    -0.20000
C1431       C  0.87879581  0.27903387  0.12314668     0.20600
C1432       C  0.88684355  0.28713474  0.13405079    -0.02900
C1433       C  0.89956685  0.28063033  0.14093206    -0.06000
C1434       C  0.90427300  0.26604973  0.13684959     0.20900
C1435       C  0.90744012  0.28864033  0.15203209     0.19100
C1436       C  0.90270037  0.30315947  0.15595985    -0.17500
C1437       C  0.89013641  0.30961742  0.14910815    -0.19700
C1438       C  0.88206017  0.30164699  0.13824891     0.20600
C1439       C  0.86913600  0.30784395  0.13173246    -0.32700
C1440       C  0.86075812  0.29970232  0.12114612     0.01300
C1441       C  0.86585418  0.28537829  0.11673518    -0.24100
C1442       C  0.91673896  0.25954240  0.14396372    -0.28600
C1443       C  0.92449616  0.26734935  0.15524004     0.06900
C1444       C  0.91980563  0.28194465  0.15912944    -0.27300
H1445       H  0.89976807  0.24695976  0.12257454     0.11600
H1446       H  0.87764210  0.25821256  0.11070969     0.12800
H1447       H  0.90864532  0.30948438  0.16442198     0.11900
H1448       H  0.88663114  0.32079368  0.15243414     0.11100
H1449       H  0.86556348  0.31897965  0.13507574     0.16500
H1450       H  0.85956146  0.27894707  0.10862602     0.12400
H1451       H  0.92022864  0.24828141  0.14089263     0.15300
H1452       H  0.92573611  0.28809266  0.16773803     0.15000
C1453       C  0.03622211  0.19061429  0.19938491    -0.17800
C1454       C  0.02415307  0.19760658  0.19219235    -0.20000
C1455       C  0.01568542  0.20866614  0.19957933     0.20600
C1456       C  0.01948440  0.21282035  0.21432125    -0.02900
C1457       C  0.03164872  0.20572185  0.22160236    -0.06000
C1458       C  0.04001157  0.19454024  0.21409780     0.20900
C1459       C  0.03539171  0.20976537  0.23638750     0.19100
C1460       C  0.02698506  0.22090397  0.24373922    -0.17500
C1461       C  0.01496424  0.22798324  0.23650242    -0.19700
C1462       C  0.01110386  0.22401352  0.22180411     0.20600
C1463       C  0.99898538  0.23097530  0.21447951    -0.32700
C1464       C  0.99501095  0.22675365  0.19982889     0.01300
C1465       C  0.00346425  0.21559408  0.19247818    -0.24100
C1466       C  0.05198248  0.18743281  0.22143062    -0.28600
C1467       C  0.05575249  0.19130959  0.23620855     0.06900
C1468       C  0.04741308  0.20255357  0.24358300    -0.27300
H1469       H  0.04255471  0.18207554  0.19345448     0.11600
H1470       H  0.02141086  0.19432714  0.18085221     0.12800
H1471       H  0.02970059  0.22413774  0.25509973     0.11900
H1472       H  0.00865060  0.23653841  0.24242763     0.11100
H1473       H  0.99254968  0.23955576  0.22024778     0.16500
H1474       H  0.00059750  0.21234873  0.18115264     0.12400
H1475       H  0.05839733  0.17893784  0.21554250     0.15300
H1476       H  0.05009305  0.20557794  0.25500045     0.15000
C1477       C  0.01733772  0.31703533  0.14258552    -0.17800
C1478       C  0.00756739  0.30872707  0.15155567    -0.20000
C1479       C  0.00289385  0.29439713  0.14706461     0.20600
C1480       C  0.00781976  0.28852339  0.13323976    -0.02900
C1481       C  0.01770716  0.29688992  0.12421536    -0.06000
C1482       C  0.02263420  0.31111526  0.12901943     0.20900
C1483       C  0.02295957  0.29085303  0.11059089     0.19100
C1484       C  0.01790100  0.27672868  0.10586282    -0.17500
C1485       C  0.00804477  0.26845626  0.11477724    -0.19700
C1486       C  0.00311432  0.27416854  0.12856403     0.20600
C1487       C  0.99369028  0.26571129  0.13781763    -0.32700
C1488       C  0.98891014  0.27138507  0.15172024     0.01300
C1489       C  0.99349551  0.28579080  0.15621648    -0.24100
C1490       C  0.03320064  0.31893660  0.12047679    -0.28600
C1491       C  0.03922613  0.31260108  0.10734140     0.06900
C1492       C  0.03360175  0.29877343  0.10220891    -0.27300
H1493       H  0.02098440  0.32797483  0.14640341     0.11600
H1494       H  0.00381276  0.31343379  0.16209550     0.12800
H1495       H  0.02177449  0.27196149  0.09539254     0.11900
H1496       H  0.00445166  0.25748891  0.11098828     0.11100
H1497       H  0.99012223  0.25467589  0.13418922     0.16500
H1498       H  0.98977262  0.29032300  0.16684944     0.12400
H1499       H  0.03708368  0.32971423  0.12444616     0.15300
H1500       H  0.03787327  0.29379896  0.09201530     0.15000
C1501       C  0.12791596  0.26224990  0.87080657    -0.17800
C1502       C  0.13507675  0.25444684  0.88241492    -0.20000
C1503       C  0.14824923  0.26009285  0.88888579     0.20600
C1504       C  0.15420974  0.27377268  0.88362252    -0.02900
C1505       C  0.14702443  0.28160739  0.87189742    -0.06000
C1506       C  0.13382075  0.27581910  0.86543431     0.20900
C1507       C  0.15314546  0.29517941  0.86657308     0.19100
C1508       C  0.16623525  0.30090257  0.87306889    -0.17500
C1509       C  0.17331524  0.29317814  0.88469346    -0.19700
C1510       C  0.16742504  0.27960187  0.88999621     0.20600
C1511       C  0.17461037  0.27174708  0.90151304    -0.32700
C1512       C  0.16886089  0.25805738  0.90681896     0.01300
C1513       C  0.15561919  0.25230230  0.90045691    -0.24100
C1514       C  0.12691265  0.28359944  0.85359033    -0.28600
C1515       C  0.13318336  0.29697529  0.84803670     0.06900
C1516       C  0.14619626  0.30274165  0.85473053    -0.27300
H1517       H  0.11780165  0.25762368  0.86597207     0.11600
H1518       H  0.13032900  0.24396689  0.88630511     0.12800
H1519       H  0.17105001  0.31132401  0.86910071     0.11900
H1520       H  0.18345301  0.29779199  0.88949325     0.11100
H1521       H  0.18478785  0.27630926  0.90629103     0.16500
H1522       H  0.15109112  0.24175478  0.90444151     0.12400
H1523       H  0.11692358  0.27902656  0.84845778     0.15300
H1524       H  0.15098153  0.31315953  0.85072990     0.15000
C1525       C  0.12688436  0.26500879  0.00691655    -0.17800
C1526       C  0.13377136  0.25708180  0.99525184    -0.20000
C1527       C  0.14787458  0.26146490  0.98985979     0.20600
C1528       C  0.15508696  0.27399170  0.99630937    -0.02900
C1529       C  0.14816008  0.28195797  0.00808789    -0.06000
C1530       C  0.13398700  0.27745587  0.01338933     0.20900
C1531       C  0.15543396  0.29442647  0.01455200     0.19100
C1532       C  0.16953249  0.29881809  0.00919747    -0.17500
C1533       C  0.17638153  0.29095425  0.99751275    -0.19700
C1534       C  0.16923560  0.27855320  0.99101815     0.20600
C1535       C  0.17607775  0.27062128  0.97936349    -0.32700
C1536       C  0.16907802  0.25805240  0.97290238     0.01300
C1537       C  0.15493727  0.25354117  0.97819902    -0.24100
C1538       C  0.12715809  0.28546555  0.02506075    -0.28600
C1539       C  0.13429998  0.29794643  0.03153888     0.06900
C1540       C  0.14847014  0.30230858  0.02621756    -0.27300
H1541       H  0.11599271  0.26140441  0.01087889     0.11600
H1542       H  0.12806203  0.24750676  0.99045058     0.12800
H1543       H  0.17527264  0.30836177  0.01404372     0.11900
H1544       H  0.18727078  0.29455607  0.99356231     0.11100
H1545       H  0.18699230  0.27419503  0.97543433     0.16500
H1546       H  0.14944675  0.24389065  0.97327781     0.12400
H1547       H  0.11633199  0.28184204  0.02915010     0.15300
H1548       H  0.15406419  0.31195795  0.03100215     0.15000
C1549       C  0.21323991  0.18181225  0.88069222    -0.17800
C1550       C  0.22064785  0.17583978  0.86825150    -0.20000
C1551       C  0.23374422  0.18258552  0.86278262     0.20600
C1552       C  0.23960222  0.19532542  0.87004311    -0.02900
C1553       C  0.23213512  0.20134285  0.88261838    -0.06000
C1554       C  0.21880969  0.19462823  0.88786593     0.20900
C1555       C  0.23784653  0.21422044  0.88975553     0.19100
C1556       C  0.25111881  0.22078863  0.88446157    -0.17500
C1557       C  0.25851611  0.21482545  0.87198034    -0.19700
C1558       C  0.25276359  0.20219118  0.86459684     0.20600
C1559       C  0.25982967  0.19639803  0.85178171    -0.32700
C1560       C  0.25392781  0.18379310  0.84437160     0.01300
C1561       C  0.24094257  0.17691018  0.85005275    -0.24100
C1562       C  0.21110702  0.20100995  0.89998898    -0.28600
C1563       C  0.21649272  0.21408613  0.90689928     0.06900
C1564       C  0.23001968  0.22047589  0.90185965    -0.27300
H1565       H  0.20305452  0.17650102  0.88460223     0.11600
H1566       H  0.21604265  0.16601661  0.86280938     0.12800
H1567       H  0.25568252  0.23065408  0.88986559     0.11900
H1568       H  0.26864880  0.22019150  0.86800711     0.11100
H1569       H  0.26992085  0.20169699  0.84762801     0.16500
H1570       H  0.23617839  0.16729317  0.84441033     0.12400
H1571       H  0.20074290  0.19597691  0.90381517     0.15300
H1572       H  0.23433823  0.23051399  0.90715988     0.15000
C1573       C  0.24975405  0.21983827  0.99629617    -0.17800
C1574       C  0.25798267  0.21270978  0.00757343    -0.20000
C1575       C  0.25395036  0.19833642  0.01255202     0.20600
C1576       C  0.24166290  0.19096779  0.00590579    -0.02900
C1577       C  0.23333122  0.19817445  0.99452950    -0.06000
C1578       C  0.23735626  0.21271642  0.98980162     0.20900
C1579       C  0.22088094  0.19091842  0.98803841     0.19100
C1580       C  0.21705900  0.17640541  0.99280020    -0.17500
C1581       C  0.22533342  0.16925679  0.00406036    -0.19700
C1582       C  0.23755531  0.17650597  0.01077717     0.20600
C1583       C  0.24553477  0.16965878  0.02247321    -0.32700
C1584       C  0.25752912  0.17710432  0.02953821     0.01300
C1585       C  0.26180993  0.19135957  0.02425913    -0.24100
C1586       C  0.22886457  0.21995726  0.97875001    -0.28600
C1587       C  0.21631685  0.21292767  0.97232154     0.06900
C1588       C  0.21242939  0.19834808  0.97699685    -0.27300
H1589       H  0.25301384  0.23099261  0.99274085     0.11600
H1590       H  0.26741349  0.21851372  0.01251534     0.12800
H1591       H  0.20758978  0.17062709  0.98790323     0.11900
H1592       H  0.22206014  0.15811421  0.00763921     0.11100
H1593       H  0.24212803  0.15862816  0.02618481     0.16500
H1594       H  0.27106355  0.19723755  0.02940216     0.12400
H1595       H  0.23199608  0.23116922  0.97524263     0.15300
H1596       H  0.20284317  0.19278493  0.97206515     0.15000
C1597       C  0.13125950  0.94084365  0.21711583    -0.17800
C1598       C  0.13905010  0.95168151  0.20893272    -0.20000
C1599       C  0.15264827  0.95743032  0.21429856     0.20600
C1600       C  0.15841770  0.95230258  0.22807681    -0.02900
C1601       C  0.15054375  0.94137990  0.23633827    -0.06000
C1602       C  0.13692634  0.93561230  0.23081007     0.20900
C1603       C  0.15632269  0.93621082  0.25009297     0.19100
C1604       C  0.16987667  0.94202894  0.25549883    -0.17500
C1605       C  0.17769045  0.95285287  0.24730833    -0.19700
C1606       C  0.17208843  0.95802064  0.23356752     0.20600
C1607       C  0.17997188  0.96870463  0.22516754    -0.32700
C1608       C  0.17437340  0.97373713  0.21132881     0.01300
C1609       C  0.16062885  0.96811953  0.20605263    -0.24100
C1610       C  0.12919613  0.92473213  0.23906493    -0.28600
C1611       C  0.13485374  0.91949477  0.25283199     0.06900
C1612       C  0.14846857  0.92532363  0.25822125    -0.27300
H1613       H  0.12080478  0.93653708  0.21271923     0.11600
H1614       H  0.13447112  0.95552190  0.19837278     0.12800
H1615       H  0.17445451  0.93818447  0.26605877     0.11900
H1616       H  0.18815420  0.95713990  0.25169708     0.11100
H1617       H  0.19050879  0.97301656  0.22936932     0.16500
H1618       H  0.15616929  0.97195611  0.19543510     0.12400
H1619       H  0.11874734  0.92044625  0.23469613     0.15300
H1620       H  0.15304915  0.92145388  0.26874628     0.15000
C1621       C  0.16310612  0.06652092  0.25288816    -0.17800
C1622       C  0.17091475  0.05483050  0.24583453    -0.20000
C1623       C  0.16957866  0.05262288  0.23034508     0.20600
C1624       C  0.16021504  0.06223294  0.22190206    -0.02900
C1625       C  0.15242743  0.07405397  0.22899282    -0.06000
C1626       C  0.15388790  0.07622796  0.24455395     0.20900
C1627       C  0.14321860  0.08372248  0.22047815     0.19100
C1628       C  0.14181990  0.08150131  0.20501299    -0.17500
C1629       C  0.14944737  0.06973576  0.19800400    -0.19700
C1630       C  0.15863883  0.06006393  0.20634701     0.20600
C1631       C  0.16628174  0.04826959  0.19936952    -0.32700
C1632       C  0.17569143  0.03873100  0.20765080     0.01300
C1633       C  0.17739552  0.04098922  0.22312268    -0.24100
C1634       C  0.14614528  0.08809727  0.25147119    -0.28600
C1635       C  0.13699114  0.09783594  0.24301229     0.06900
C1636       C  0.13560314  0.09551101  0.22752381    -0.27300
H1637       H  0.16432940  0.06801167  0.26485443     0.11600
H1638       H  0.17800390  0.04752240  0.25249199     0.12800
H1639       H  0.13480250  0.08885906  0.19833402     0.11900
H1640       H  0.14817520  0.06821347  0.18604620     0.11100
H1641       H  0.16504980  0.04661843  0.18741418     0.16500
H1642       H  0.18459374  0.03356295  0.22954532     0.12400
H1643       H  0.14723028  0.08967726  0.26343190     0.15300
H1644       H  0.12876617  0.10298601  0.22081542     0.15000
C1645       C  0.21986358  0.07201778  0.11917530    -0.17800
C1646       C  0.21249526  0.06090731  0.12744096    -0.20000
C1647       C  0.21971339  0.05379772  0.13948841     0.20600
C1648       C  0.23452496  0.05786582  0.14318840    -0.02900
C1649       C  0.24195514  0.06905000  0.13484156    -0.06000
C1650       C  0.23458377  0.07619871  0.12281175     0.20900
C1651       C  0.25673881  0.07312229  0.13860764     0.19100
C1652       C  0.26400692  0.06594979  0.15056598    -0.17500
C1653       C  0.25664734  0.05489954  0.15884470    -0.19700
C1654       C  0.24190219  0.05082952  0.15528844     0.20600
C1655       C  0.23440830  0.03990468  0.16369461    -0.32700
C1656       C  0.21962763  0.03582193  0.16015823     0.01300
C1657       C  0.21237765  0.04276723  0.14796305    -0.24100
C1658       C  0.24201472  0.08747198  0.11472211    -0.28600
C1659       C  0.25673633  0.09171697  0.11852269     0.06900
C1660       C  0.26400709  0.08435107  0.13042926    -0.27300
H1661       H  0.21403034  0.07737568  0.10997044     0.11600
H1662       H  0.20112014  0.05791557  0.12444220     0.12800
H1663       H  0.27537861  0.06894465  0.15357302     0.11900
H1664       H  0.26247262  0.04957512  0.16807451     0.11100
H1665       H  0.24011044  0.03457672  0.17300684     0.16500
H1666       H  0.20096025  0.03972614  0.14516098     0.12400
H1667       H  0.23621440  0.09303431  0.10563315     0.15300
H1668       H  0.27538185  0.08728522  0.13341326     0.15000
C1669       C  0.21229209  0.94501190  0.13119801    -0.17800
C1670       C  0.21881880  0.93256950  0.12421205    -0.20000
C1671       C  0.23208131  0.92622836  0.12986676     0.20600
C1672       C  0.23886922  0.93250264  0.14265290    -0.02900
C1673       C  0.23229528  0.94507665  0.14969734    -0.06000
C1674       C  0.21892418  0.95131176  0.14394159     0.20900
C1675       C  0.23904034  0.95134156  0.16252211     0.19100
C1676       C  0.25233004  0.94501398  0.16814897    -0.17500
C1677       C  0.25883988  0.93252992  0.16116549    -0.19700
C1678       C  0.25218668  0.92619018  0.14843015     0.20600
C1679       C  0.25859525  0.91363875  0.14139583    -0.32700
C1680       C  0.25190517  0.90728239  0.12861213     0.01300
C1681       C  0.23863557  0.91371540  0.12294014    -0.24100
C1682       C  0.21232494  0.96365026  0.15109452    -0.28600
C1683       C  0.21885170  0.96986393  0.16398340     0.06900
C1684       C  0.23229700  0.96371941  0.16956919    -0.27300
H1685       H  0.20201800  0.94968339  0.12665413     0.11600
H1686       H  0.21347051  0.92788040  0.11440013     0.12800
H1687       H  0.25765459  0.94968195  0.17798184     0.11900
H1688       H  0.26907979  0.92781579  0.16574538     0.11100
H1689       H  0.26875515  0.90883385  0.14600771     0.16500
H1690       H  0.23334907  0.90907683  0.11309239     0.12400
H1691       H  0.20198369  0.96831023  0.14667870     0.15300
H1692       H  0.23742431  0.96843721  0.17948989     0.15000
C1693       C  0.17225610  0.93944733  0.63404257    -0.17800
C1694       C  0.17903451  0.95165693  0.64108626    -0.20000
C1695       C  0.17301755  0.95750439  0.65437807     0.20600
C1696       C  0.15990452  0.95117480  0.66051652    -0.02900
C1697       C  0.15306423  0.93886833  0.65340458    -0.06000
C1698       C  0.15937195  0.93289677  0.64019857     0.20900
C1699       C  0.14011019  0.93235500  0.65967542     0.19100
C1700       C  0.13394994  0.93836243  0.67283688    -0.17500
C1701       C  0.14075451  0.95055277  0.67991382    -0.19700
C1702       C  0.15379620  0.95694141  0.67391186     0.20600
C1703       C  0.16098237  0.96881454  0.68121371    -0.32700
C1704       C  0.17421064  0.97499344  0.67530102     0.01300
C1705       C  0.18004500  0.96938786  0.66177892    -0.24100
C1706       C  0.15291008  0.92025996  0.63356760    -0.28600
C1707       C  0.14031095  0.91336726  0.64003021     0.06900
C1708       C  0.13377794  0.91969969  0.65291344    -0.27300
H1709       H  0.17720810  0.93499767  0.62388562     0.11600
H1710       H  0.18908728  0.95642066  0.63622830     0.12800
H1711       H  0.12398656  0.93350176  0.67777301     0.11900
H1712       H  0.13590919  0.95487865  0.69016994     0.11100
H1713       H  0.15641086  0.97305368  0.69163404     0.16500
H1714       H  0.19025261  0.97405705  0.65714028     0.12400
H1715       H  0.15789418  0.91569153  0.62349079     0.15300
H1716       H  0.12408494  0.91453516  0.65803584     0.15000
C1717       C  0.22670896  0.07150411  0.76496832    -0.17800
C1718       C  0.21904601  0.06008468  0.75751525    -0.20000
C1719       C  0.22486070  0.05394899  0.74426802     0.20600
C1720       C  0.23865463  0.05918422  0.73858828    -0.02900
C1721       C  0.24638840  0.07070941  0.74611533    -0.06000
C1722       C  0.24031180  0.07696559  0.75928917     0.20900
C1723       C  0.26004326  0.07614913  0.74031211     0.19100
C1724       C  0.26598493  0.06982241  0.72719247    -0.17500
C1725       C  0.25831862  0.05839041  0.71972430    -0.19700
C1726       C  0.24458841  0.05309813  0.72526008     0.20600
C1727       C  0.23657154  0.04201166  0.71757726    -0.32700
C1728       C  0.22266460  0.03695203  0.72302368     0.01300
C1729       C  0.21699117  0.04285373  0.73648141    -0.24100
C1730       C  0.24774092  0.08880547  0.76639311    -0.28600
C1731       C  0.26114774  0.09463562  0.76046956     0.06900
C1732       C  0.26735492  0.08801773  0.74755141    -0.27300
H1733       H  0.22190783  0.07618409  0.77508976     0.11600
H1734       H  0.20848208  0.05616167  0.76203203     0.12800
H1735       H  0.27647968  0.07384162  0.72260339     0.11900
H1736       H  0.26304896  0.05380175  0.70952691     0.11100
H1737       H  0.24107786  0.03748515  0.70724620     0.16500
H1738       H  0.20630894  0.03900623  0.74079391     0.12400
H1739       H  0.24275694  0.09370350  0.77629685     0.15300
H1740       H  0.27776205  0.09220203  0.74294498     0.15000
C1741       C  0.13466274  0.07850124  0.68325299    -0.17800
C1742       C  0.14098572  0.06463906  0.68711988    -0.20000
C1743       C  0.15474541  0.06008145  0.68094763     0.20600
C1744       C  0.16204928  0.06941513  0.67051210    -0.02900
C1745       C  0.15564545  0.08341964  0.66659613    -0.06000
C1746       C  0.14196095  0.08802818  0.67310588     0.20900
C1747       C  0.16303658  0.09288233  0.65634948     0.19100
C1748       C  0.17665264  0.08816961  0.64993722    -0.17500
C1749       C  0.18302345  0.07431356  0.65384862    -0.19700
C1750       C  0.17589337  0.06491003  0.66423806     0.20600
C1751       C  0.18256434  0.05132189  0.66880916    -0.32700
C1752       C  0.17563595  0.04226593  0.67970398     0.01300
C1753       C  0.16153054  0.04657538  0.68540000    -0.24100
C1754       C  0.13580725  0.10208083  0.66941226    -0.28600
C1755       C  0.14305929  0.11165906  0.65919006     0.06900
C1756       C  0.15672870  0.10690310  0.65273389    -0.27300
H1757       H  0.12410955  0.08182623  0.68830246     0.11600
H1758       H  0.13521127  0.05757183  0.69511713     0.12800
H1759       H  0.18245577  0.09526906  0.64198950     0.11900
H1760       H  0.19363219  0.07103809  0.64888359     0.11100
H1761       H  0.19340748  0.04810755  0.66431969     0.16500
H1762       H  0.15600168  0.03963370  0.69368428     0.12400
H1763       H  0.12532214  0.10545778  0.67452252     0.15300
H1764       H  0.16254681  0.11403413  0.64485920     0.15000
C1765       C  0.88651062  0.18135019  0.68073732    -0.17800
C1766       C  0.89691393  0.18950294  0.68916969    -0.20000
C1767       C  0.90147688  0.20384333  0.68452468     0.20600
C1768       C  0.89539159  0.21004544  0.67130859    -0.02900
C1769       C  0.88490996  0.20182889  0.66281734    -0.06000
C1770       C  0.88048004  0.18739532  0.66751611     0.20900
C1771       C  0.87892332  0.20805621  0.64958838     0.19100
C1772       C  0.88334019  0.22243722  0.64500251    -0.17500
C1773       C  0.89371420  0.23056166  0.65338942    -0.19700
C1774       C  0.89983808  0.22443832  0.66649626     0.20600
C1775       C  0.91042335  0.23244893  0.67477855    -0.32700
C1776       C  0.91671861  0.22634095  0.68786901     0.01300
C1777       C  0.91209004  0.21204782  0.69275773    -0.24100
C1778       C  0.87010500  0.17928824  0.65891831    -0.28600
C1779       C  0.86404101  0.18544310  0.64567913     0.06900
C1780       C  0.86860522  0.19984964  0.64113896    -0.27300
H1781       H  0.88320936  0.17029137  0.68454257     0.11600
H1782       H  0.90143833  0.18456276  0.69929158     0.12800
H1783       H  0.87880347  0.22738978  0.63489036     0.11900
H1784       H  0.89700313  0.24162390  0.64958034     0.11100
H1785       H  0.91381807  0.24347165  0.67093261     0.16500
H1786       H  0.91685190  0.20724303  0.70284144     0.12400
H1787       H  0.86679564  0.16821552  0.66261700     0.15300
H1788       H  0.86411092  0.20484483  0.63105859     0.15000
C1789       C  0.02380582  0.22762018  0.65237262    -0.17800
C1790       C  0.01103864  0.23448121  0.65842964    -0.20000
C1791       C  0.00306319  0.22754087  0.67004969     0.20600
C1792       C  0.00788365  0.21343044  0.67546846    -0.02900
C1793       C  0.02079163  0.20649793  0.66934562    -0.06000
C1794       C  0.02882516  0.21369373  0.65782493     0.20900
C1795       C  0.02578555  0.19250794  0.67491389     0.19100
C1796       C  0.01763454  0.18544673  0.68635675    -0.17500
C1797       C  0.00484963  0.19231515  0.69243066    -0.19700
C1798       C  0.99997588  0.20637208  0.68717536     0.20600
C1799       C  0.98752303  0.21361537  0.69361320    -0.32700
C1800       C  0.98283157  0.22784353  0.68849935     0.01300
C1801       C  0.99054366  0.23460329  0.67653217    -0.24100
C1802       C  0.04186439  0.20698143  0.65208307    -0.28600
C1803       C  0.04713998  0.19314112  0.65769477     0.06900
C1804       C  0.03892091  0.18592852  0.66907269    -0.27300
H1805       H  0.02984216  0.23328210  0.64350183     0.11600
H1806       H  0.00749026  0.24530265  0.65412179     0.12800
H1807       H  0.02124012  0.17467301  0.69072925     0.11900
H1808       H  0.99886854  0.18670277  0.70136889     0.11100
H1809       H  0.98161591  0.20825330  0.70275795     0.16500
H1810       H  0.98705475  0.24555757  0.67250179     0.12400
H1811       H  0.04804207  0.21279601  0.64343504     0.15300
H1812       H  0.04272011  0.17521804  0.67342204     0.15000
C1813       C  0.01228872  0.28463241  0.77559955    -0.17800
C1814       C  0.00019007  0.27738191  0.76883194    -0.20000
C1815       C  0.99649467  0.28039713  0.75387672     0.20600
C1816       C  0.00484140  0.29109850  0.74576232    -0.02900
C1817       C  0.01710592  0.29835812  0.75257622    -0.06000
C1818       C  0.02093253  0.29497194  0.76750384     0.20900
C1819       C  0.02573603  0.30872483  0.74434845     0.19100
C1820       C  0.02178066  0.31204690  0.72950905    -0.17500
C1821       C  0.00958286  0.30490460  0.72276919    -0.19700
C1822       C  0.00115340  0.29429702  0.73074819     0.20600
C1823       C  0.98930950  0.28660845  0.72388909    -0.32700
C1824       C  0.98123920  0.27558623  0.73177485     0.01300
C1825       C  0.98479368  0.27268626  0.74682193    -0.24100
C1826       C  0.03357477  0.30163978  0.77396401    -0.28600
C1827       C  0.04267570  0.31150823  0.76566486     0.06900
C1828       C  0.03840603  0.31526432  0.75094890    -0.27300
H1829       H  0.01505014  0.28194990  0.78710017     0.11600
H1830       H  0.99384235  0.26926120  0.77524148     0.12800
H1831       H  0.02825545  0.32001652  0.72303758     0.11900
H1832       H  0.00687771  0.30751715  0.71124187     0.11100
H1833       H  0.98665295  0.28892038  0.71228085     0.16500
H1834       H  0.97854230  0.26431783  0.75301811     0.12400
H1835       H  0.03646533  0.29875481  0.78536157     0.15300
H1836       H  0.04511421  0.32294881  0.74440814     0.15000
C1837       C  0.24983492  0.92524571  0.71472069    -0.17800
C1838       C  0.24469298  0.93884404  0.70875769    -0.20000
C1839       C  0.23509058  0.94815566  0.71708959     0.20600
C1840       C  0.23076505  0.94379175  0.73165010    -0.02900
C1841       C  0.23599538  0.93008625  0.73768458    -0.06000
C1842       C  0.24550831  0.92075291  0.72913877     0.20900
C1843       C  0.23161053  0.92568046  0.75220328     0.19100
C1844       C  0.22212953  0.93506186  0.76060373    -0.17500
C1845       C  0.21687752  0.94860290  0.75459657    -0.19700
C1846       C  0.22104682  0.95300903  0.74010379     0.20600
C1847       C  0.21541441  0.96630465  0.73380402    -0.32700
C1848       C  0.21937821  0.97056672  0.71915665     0.01300
C1849       C  0.22947112  0.96157049  0.71098669    -0.24100
C1850       C  0.25055939  0.90710065  0.73514222    -0.28600
C1851       C  0.24637921  0.90263996  0.74967292     0.06900
C1852       C  0.23680868  0.91200742  0.75809036    -0.27300
H1853       H  0.25717241  0.91821495  0.70802822     0.11600
H1854       H  0.24812204  0.94201419  0.69756643     0.12800
H1855       H  0.21869670  0.93188201  0.77179117     0.11900
H1856       H  0.20945302  0.95557967  0.76125039     0.11100
H1857       H  0.20771530  0.97320797  0.74023159     0.16500
H1858       H  0.23254728  0.96472717  0.69968332     0.12400
H1859       H  0.25776907  0.89999789  0.72841740     0.15300
H1860       H  0.23352446  0.90883111  0.76930711     0.15000
C1861       C  0.89193993  0.30838482  0.72706972    -0.17800
C1862       C  0.88018062  0.31599674  0.73414941    -0.20000
C1863       C  0.87444138  0.31076444  0.74780084     0.20600
C1864       C  0.88080581  0.29793051  0.75455789    -0.02900
C1865       C  0.89268374  0.29024075  0.74741222    -0.06000
C1866       C  0.89816213  0.29542568  0.73353612     0.20900
C1867       C  0.89888792  0.27723563  0.75402098     0.19100
C1868       C  0.89336796  0.27222686  0.76785645    -0.17500
C1869       C  0.88158627  0.27985278  0.77493573    -0.19700
C1870       C  0.87511781  0.29261162  0.76829256     0.20600
C1871       C  0.86282476  0.29989769  0.77494694    -0.32700
C1872       C  0.85602772  0.31238800  0.76799214     0.01300
C1873       C  0.86220798  0.31794212  0.75459275    -0.24100
C1874       C  0.90962979  0.28747200  0.72625697    -0.28600
C1875       C  0.91571585  0.27433777  0.73261185     0.06900
C1876       C  0.91035920  0.26937449  0.74658759    -0.27300
H1877       H  0.89605951  0.31254237  0.71644822     0.11600
H1878       H  0.87543413  0.32586914  0.72883599     0.12800
H1879       H  0.89804977  0.26230209  0.77312662     0.11900
H1880       H  0.87739546  0.27564609  0.78551097     0.11100
H1881       H  0.85837419  0.29553142  0.78532894     0.16500
H1882       H  0.85735046  0.32765887  0.74915217     0.12400
H1883       H  0.91369977  0.29144927  0.71554224     0.15300
H1884       H  0.91501671  0.25931875  0.75163955     0.15000
C1885       C  0.68643360  0.17838301  0.87603311    -0.17800
C1886       C  0.69387375  0.18691263  0.88682795    -0.20000
C1887       C  0.68710186  0.19982157  0.89284957     0.20600
C1888       C  0.67264779  0.20412524  0.88804642    -0.02900
C1889       C  0.66513680  0.19551135  0.87715232    -0.06000
C1890       C  0.67210522  0.18263008  0.87107829     0.20900
C1891       C  0.65074088  0.19988389  0.87223052     0.19100
C1892       C  0.64389417  0.21268564  0.87839022    -0.17500
C1893       C  0.65133477  0.22121927  0.88919838    -0.19700
C1894       C  0.66573947  0.21708590  0.89404233     0.20600
C1895       C  0.67335461  0.22568632  0.90475592    -0.32700
C1896       C  0.68777959  0.22147198  0.90960685     0.01300
C1897       C  0.69455183  0.20850196  0.90357177    -0.24100
C1898       C  0.66475252  0.17436436  0.85997167    -0.28600
C1899       C  0.65054789  0.17884912  0.85473097     0.06900
C1900       C  0.64353740  0.19151791  0.86108437    -0.27300
H1901       H  0.69193273  0.16851550  0.87148496     0.11600
H1902       H  0.70496126  0.18344487  0.89042347     0.12800
H1903       H  0.63282371  0.21617060  0.87476109     0.11900
H1904       H  0.64584554  0.23110411  0.89371887     0.11100
H1905       H  0.66801415  0.23562237  0.90935322     0.16500
H1906       H  0.70565856  0.20512654  0.90721029     0.12400
H1907       H  0.67033723  0.16469389  0.85514531     0.15300
H1908       H  0.63250947  0.19496557  0.85731493     0.15000
C1909       C  0.76939787  0.27301891  0.87014254    -0.17800
C1910       C  0.76358701  0.26619622  0.88295136    -0.20000
C1911       C  0.75018581  0.27144940  0.88932629     0.20600
C1912       C  0.74260162  0.28375890  0.88279842    -0.02900
C1913       C  0.74846769  0.29064210  0.86986585    -0.06000
C1914       C  0.76190923  0.28521338  0.86353154     0.20900
C1915       C  0.74087800  0.30290698  0.86326610     0.19100
C1916       C  0.72748380  0.30817693  0.86967940    -0.17500
C1917       C  0.72164716  0.30133572  0.88250262    -0.19700
C1918       C  0.72910914  0.28911557  0.88911621     0.20600
C1919       C  0.72320255  0.28201238  0.90179441    -0.32700
C1920       C  0.73054741  0.26954077  0.90818210     0.01300
C1921       C  0.74413121  0.26444984  0.90197520    -0.24100
C1922       C  0.76770745  0.29209511  0.85073275    -0.28600
C1923       C  0.76039819  0.30449585  0.84417748     0.06900
C1924       C  0.74687836  0.30974681  0.85045254    -0.27300
H1925       H  0.77975885  0.26875121  0.86539990     0.11600
H1926       H  0.76953951  0.25676268  0.88783164     0.12800
H1927       H  0.72151504  0.31758530  0.86477281     0.11900
H1928       H  0.71126091  0.30557046  0.88721822     0.11100
H1929       H  0.71270567  0.28601229  0.90648019     0.16500
H1930       H  0.74987568  0.25485946  0.90681398     0.12400
H1931       H  0.77797145  0.28770325  0.84594902     0.15300
H1932       H  0.74112576  0.31928835  0.84556808     0.15000
C1933       C  0.73445615  0.30712903  0.01409370    -0.17800
C1934       C  0.72743391  0.30078978  0.00159868    -0.20000
C1935       C  0.73362296  0.28812433  0.99452346     0.20600
C1936       C  0.74715737  0.28194012  0.99998372    -0.02900
C1937       C  0.75423324  0.28833141  0.01260171    -0.06000
C1938       C  0.74779100  0.30090567  0.01976820     0.20900
C1939       C  0.76762806  0.28198258  0.01816932     0.19100
C1940       C  0.77395990  0.26946676  0.01097250    -0.17500
C1941       C  0.76696032  0.26313558  0.99850170    -0.19700
C1942       C  0.75351405  0.26922326  0.99299256     0.20600
C1943       C  0.74622236  0.26265503  0.98075967    -0.32700
C1944       C  0.73256597  0.26854153  0.97537393     0.01300
C1945       C  0.72641950  0.28140061  0.98225014    -0.24100
C1946       C  0.75465011  0.30687938  0.03260725    -0.28600
C1947       C  0.76786855  0.30040956  0.03847404     0.06900
C1948       C  0.77434777  0.28806435  0.03097925    -0.27300
H1949       H  0.72936307  0.31681638  0.01941946     0.11600
H1950       H  0.71707435  0.30572144  0.99754968     0.12800
H1951       H  0.78426293  0.26446875  0.01508468     0.11900
H1952       H  0.77200106  0.25338336  0.99324290     0.11100
H1953       H  0.75110342  0.25276934  0.97558855     0.16500
H1954       H  0.71591705  0.28604274  0.97821802     0.12400
H1955       H  0.74953296  0.31645585  0.03807168     0.15300
H1956       H  0.78451064  0.28292109  0.03519268     0.15000
C1957       C  0.68948587  0.18296179  0.01297678    -0.17800
C1958       C  0.69637023  0.19037757  0.00105232    -0.20000
C1959       C  0.68888422  0.20203971  0.99356510     0.20600
C1960       C  0.67424792  0.20618003  0.99801040    -0.02900
C1961       C  0.66729941  0.19869152  0.01003867    -0.06000
C1962       C  0.67500594  0.18709150  0.01759119     0.20900
C1963       C  0.65274910  0.20295504  0.01463855     0.19100
C1964       C  0.64517991  0.21448438  0.00700555    -0.17500
C1965       C  0.65207613  0.22192263  0.99507548    -0.19700
C1966       C  0.66664376  0.21793303  0.99058628     0.20600
C1967       C  0.67381855  0.22561779  0.97894340    -0.32700
C1968       C  0.68849439  0.22168504  0.97460355     0.01300
C1969       C  0.69587333  0.20976662  0.98185674    -0.24100
C1970       C  0.66821313  0.17996611  0.02977733    -0.28600
C1971       C  0.65383781  0.18432394  0.03462436     0.06900
C1972       C  0.64611721  0.19574708  0.02690514    -0.27300
H1973       H  0.69553663  0.17406690  0.01866954     0.11600
H1974       H  0.70760693  0.18707010  0.99776242     0.12800
H1975       H  0.63397921  0.21785224  0.01035825     0.11900
H1976       H  0.64606931  0.23088761  0.98944785     0.11100
H1977       H  0.66800669  0.23473800  0.97334701     0.16500
H1978       H  0.70718208  0.20666931  0.97858985     0.12400
H1979       H  0.67433188  0.17128093  0.03569863     0.15300
H1980       H  0.63495715  0.19906143  0.03042828     0.15000
C1981       C  0.70383973  0.93378013  0.11885859    -0.17800
C1982       C  0.71032646  0.94672680  0.12486738    -0.20000
C1983       C  0.70483951  0.95293753  0.13823766     0.20600
C1984       C  0.69260893  0.94610682  0.14555133    -0.02900
C1985       C  0.68607135  0.93306008  0.13948844    -0.06000
C1986       C  0.69176400  0.92681478  0.12612705     0.20900
C1987       C  0.67393649  0.92619518  0.14689045     0.19100
C1988       C  0.66834819  0.93244701  0.16018644    -0.17500
C1989       C  0.67483683  0.94534580  0.16620849    -0.19700
C1990       C  0.68698575  0.95222174  0.15900087     0.20600
C1991       C  0.69365863  0.96504391  0.16508556    -0.32700
C1992       C  0.70593171  0.97188803  0.15794926     0.01300
C1993       C  0.71142483  0.96577994  0.14448185    -0.24100
C1994       C  0.68542917  0.91360951  0.12039584    -0.28600
C1995       C  0.67348386  0.90652330  0.12787730     0.06900
C1996       C  0.66770064  0.91307969  0.14101351    -0.27300
H1997       H  0.70834028  0.92915406  0.10857470     0.11600
H1998       H  0.71969551  0.95183977  0.11909318     0.12800
H1999       H  0.65902124  0.92729224  0.16599618     0.11900
H2000       H  0.67039045  0.94991016  0.17654148     0.11100
H2001       H  0.68934909  0.96960645  0.17548286     0.16500
H2002       H  0.72089000  0.97094391  0.13890267     0.12400
H2003       H  0.69000572  0.90878971  0.11025117     0.15300
H2004       H  0.65841329  0.90797373  0.14687083     0.15000
C2005       C  0.66315367  0.05699042  0.15782253    -0.17800
C2006       C  0.65473149  0.06822469  0.15077605    -0.20000
C2007       C  0.66054741  0.07591548  0.13837029     0.20600
C2008       C  0.67495586  0.07218085  0.13295202    -0.02900
C2009       C  0.68346168  0.06084418  0.14006500    -0.06000
C2010       C  0.67753352  0.05325959  0.15258341     0.20900
C2011       C  0.69792826  0.05719563  0.13472639     0.19100
C2012       C  0.70373199  0.06488321  0.12230964    -0.17500
C2013       C  0.69529897  0.07611213  0.11525927    -0.19700
C2014       C  0.68092115  0.07984782  0.12050743     0.20600
C2015       C  0.67249975  0.09123610  0.11362739    -0.32700
C2016       C  0.65818797  0.09518521  0.11905186     0.01300
C2017       C  0.65226214  0.08735672  0.13138338    -0.24100
C2018       C  0.68612838  0.04218102  0.15974568    -0.28600
C2019       C  0.70061173  0.03854035  0.15459153     0.06900
C2020       C  0.70638444  0.04603895  0.14198580    -0.27300
H2021       H  0.65844387  0.05126413  0.16742393     0.11600
H2022       H  0.64368784  0.07094892  0.15508090     0.12800
H2023       H  0.71482551  0.06224857  0.11807893     0.11900
H2024       H  0.70005205  0.08192095  0.10572680     0.11100
H2025       H  0.67731060  0.09720792  0.10424537     0.16500
H2026       H  0.64121467  0.09015040  0.13561147     0.12400
H2027       H  0.68155340  0.03646715  0.16942560     0.15300
H2028       H  0.71755218  0.04337425  0.13795554     0.15000
C2029       C  0.78310875  0.08496232  0.19794921    -0.17800
C2030       C  0.77759917  0.07160253  0.19185471    -0.20000
C2031       C  0.76505503  0.06454478  0.19818116     0.20600
C2032       C  0.75806249  0.07096937  0.21083782    -0.02900
C2033       C  0.76357897  0.08447615  0.21694185    -0.06000
C2034       C  0.77614471  0.09151662  0.21045096     0.20900
C2035       C  0.75644104  0.09098046  0.22946738     0.19100
C2036       C  0.74397953  0.08387782  0.23587834    -0.17500
C2037       C  0.73853696  0.07048907  0.22985761    -0.19700
C2038       C  0.74545640  0.06399315  0.21731619     0.20600
C2039       C  0.73983969  0.05075857  0.21103305    -0.32700
C2040       C  0.74654895  0.04439792  0.19824979     0.01300
C2041       C  0.75925847  0.05130160  0.19196680    -0.24100
C2042       C  0.78145370  0.10502716  0.21650983    -0.28600
C2043       C  0.77431522  0.11165563  0.22893931     0.06900
C2044       C  0.76183231  0.10449666  0.23535249    -0.27300
H2045       H  0.79277586  0.09021507  0.19282835     0.11600
H2046       H  0.78311152  0.06682637  0.18214287     0.12800
H2047       H  0.73839299  0.08871732  0.24551841     0.11900
H2048       H  0.72884454  0.06526207  0.23495726     0.11100
H2049       H  0.73003945  0.04556756  0.21597351     0.16500
H2050       H  0.76451460  0.04650820  0.18211758     0.12400
H2051       H  0.79101604  0.11044983  0.21138674     0.15300
H2052       H  0.75633630  0.10932661  0.24503504     0.15000
C2053       C  0.75012612  0.95511100  0.23663997    -0.17800
C2054       C  0.75615777  0.94197994  0.24283294    -0.20000
C2055       C  0.76657590  0.93333716  0.23476125     0.20600
C2056       C  0.77130911  0.93821826  0.22049668    -0.02900
C2057       C  0.76524777  0.95147188  0.21426273    -0.06000
C2058       C  0.75442085  0.95981649  0.22227618     0.20900
C2059       C  0.76971039  0.95612506  0.19984104     0.19100
C2060       C  0.78043216  0.94770991  0.19193495    -0.17500
C2061       C  0.78644583  0.93458800  0.19811526    -0.19700
C2062       C  0.78184227  0.92968280  0.21230490     0.20600
C2063       C  0.78742090  0.91626750  0.21832715    -0.32700
C2064       C  0.78255552  0.91116798  0.23240254     0.01300
C2065       C  0.77219106  0.91981033  0.24060099    -0.24100
C2066       C  0.74770957  0.97241012  0.21558089    -0.28600
C2067       C  0.75167102  0.97676125  0.20096403     0.06900
C2068       C  0.76299682  0.96880175  0.19335219    -0.27300
H2069       H  0.74189582  0.96144355  0.24298016     0.11600
H2070       H  0.75249546  0.93845979  0.25384655     0.12800
H2071       H  0.78398909  0.95114517  0.18086077     0.11900
H2072       H  0.79456093  0.92816945  0.19171108     0.11100
H2073       H  0.79530922  0.90963672  0.21186242     0.16500
H2074       H  0.76853646  0.91606045  0.25154159     0.12400
H2075       H  0.73906593  0.97853755  0.22157703     0.15300
H2076       H  0.76612607  0.97205020  0.18208842     0.15000
C2077       C  0.90520057  0.75838434  0.12857191    -0.17800
C2078       C  0.89222270  0.75229024  0.12223111    -0.20000
C2079       C  0.88681165  0.73830500  0.12703104     0.20600
C2080       C  0.89462144  0.73037744  0.13829574    -0.02900
C2081       C  0.90770451  0.73652097  0.14469318    -0.06000
C2082       C  0.91299424  0.75060962  0.13983133     0.20900
C2083       C  0.91539700  0.72861714  0.15605039     0.19100
C2084       C  0.91007539  0.71459693  0.16078250    -0.17500
C2085       C  0.89714980  0.70850480  0.15442855    -0.19700
C2086       C  0.88931737  0.71634025  0.14325551     0.20600
C2087       C  0.87623691  0.71037128  0.13703201    -0.32700
C2088       C  0.86825986  0.71819319  0.12588413     0.01300
C2089       C  0.87369685  0.73214618  0.12086141    -0.24100
C2090       C  0.92585847  0.75675011  0.14644832    -0.28600
C2091       C  0.93343118  0.74905270  0.15797361     0.06900
C2092       C  0.92816800  0.73493186  0.16261649    -0.27300
H2093       H  0.90910218  0.76922515  0.12471646     0.11600
H2094       H  0.88638558  0.75854701  0.11360454     0.12800
H2095       H  0.91586585  0.70837360  0.16946484     0.11900
H2096       H  0.89322271  0.69768760  0.15832453     0.11100
H2097       H  0.87237041  0.69952056  0.14085686     0.16500
H2098       H  0.86763541  0.73832444  0.11233618     0.12400
H2099       H  0.92977697  0.76767317  0.14283367     0.15300
H2100       H  0.93392893  0.72889021  0.17145284     0.15000
C2101       C  0.89667815  0.83121757  0.20090083    -0.17800
C2102       C  0.90949633  0.82469595  0.19460844    -0.20000
C2103       C  0.91683382  0.81279768  0.20188938     0.20600
C2104       C  0.91133543  0.80753075  0.21572388    -0.02900
C2105       C  0.89844954  0.81414116  0.22208704    -0.06000
C2106       C  0.89103766  0.82597269  0.21459257     0.20900
C2107       C  0.89287465  0.80876527  0.23583977     0.19100
C2108       C  0.90026655  0.79693847  0.24317529    -0.17500
C2109       C  0.91299426  0.79032663  0.23682870    -0.19700
C2110       C  0.91854829  0.79548264  0.22308250     0.20600
C2111       C  0.93098404  0.78857467  0.21641330    -0.32700
C2112       C  0.93630318  0.79352640  0.20246331     0.01300
C2113       C  0.92935003  0.80583589  0.19540510    -0.24100
C2114       C  0.87800884  0.83221629  0.22081875    -0.28600
C2115       C  0.87226964  0.82679687  0.23445792     0.06900
C2116       C  0.87990169  0.81516969  0.24195497    -0.27300
H2117       H  0.89111678  0.84029982  0.19500723     0.11600
H2118       H  0.91357727  0.82884994  0.18396877     0.12800
H2119       H  0.89611330  0.79269917  0.25375326     0.11900
H2120       H  0.91841904  0.78109105  0.24261077     0.11100
H2121       H  0.93631150  0.77912325  0.22194753     0.16500
H2122       H  0.93335868  0.80970283  0.18462455     0.12400
H2123       H  0.87225201  0.84110668  0.21485311     0.15300
H2124       H  0.87577096  0.81098603  0.25254486     0.15000
C2125       C  0.03184737  0.83558261  0.21311145    -0.17800
C2126       C  0.02146111  0.82785111  0.20430001    -0.20000
C2127       C  0.01677972  0.81337412  0.20835358     0.20600
C2128       C  0.02257091  0.80666870  0.22145145    -0.02900
C2129       C  0.03304697  0.81446579  0.23033263    -0.06000
C2130       C  0.03772967  0.82896978  0.22612080     0.20900
C2131       C  0.03887231  0.80770921  0.24338548     0.19100
C2132       C  0.03411209  0.79329661  0.24750948    -0.17500
C2133       C  0.02371886  0.78558659  0.23873579    -0.19700
C2134       C  0.01791260  0.79215656  0.22569153     0.20600
C2135       C  0.00748310  0.78447414  0.21686763    -0.32700
C2136       C  0.00160434  0.79105451  0.20380826     0.01300
C2137       C  0.00636805  0.80551419  0.19959245    -0.24100
C2138       C  0.04830970  0.83653726  0.23490973    -0.28600
C2139       C  0.05434482  0.82978925  0.24786074     0.06900
C2140       C  0.04943244  0.81540584  0.25205053    -0.27300
H2141       H  0.03531641  0.84672652  0.20971948     0.11600
H2142       H  0.01710533  0.83318661  0.19430524     0.12800
H2143       H  0.03846628  0.78796107  0.25750730     0.11900
H2144       H  0.02023169  0.77445626  0.24215010     0.11100
H2145       H  0.00388818  0.77336043  0.22024269     0.16500
H2146       H  0.00184662  0.81073613  0.18960528     0.12400
H2147       H  0.05199592  0.84756703  0.23143937     0.15300
H2148       H  0.05380328  0.81012911  0.26206049     0.15000
C2149       C  0.02912144  0.69866429  0.15004060    -0.17800
C2150       C  0.01814875  0.70674575  0.15786808    -0.20000
C2151       C  0.01385605  0.72115587  0.15310754     0.20600
C2152       C  0.02047208  0.72735634  0.14016850    -0.02900
C2153       C  0.03154933  0.71921323  0.13229213    -0.06000
C2154       C  0.03598755  0.70486101  0.13732878     0.20900
C2155       C  0.03833485  0.72554055  0.11951764     0.19100
C2156       C  0.03381341  0.73981032  0.11455981    -0.17500
C2157       C  0.02282038  0.74786394  0.12233712    -0.19700
C2158       C  0.01619837  0.74179408  0.13521344     0.20600
C2159       C  0.00554543  0.75001974  0.14332805    -0.32700
C2160       C  0.99913925  0.74408789  0.15642583     0.01300
C2161       C  0.00323135  0.72955908  0.16115939    -0.24100
C2162       C  0.04735953  0.69705181  0.12970713    -0.28600
C2163       C  0.05446297  0.70341753  0.11713372     0.06900
C2164       C  0.04968986  0.71761994  0.11203703    -0.27300
H2165       H  0.03235590  0.68762566  0.15402928     0.11600
H2166       H  0.01313186  0.70178577  0.16773561     0.12800
H2167       H  0.03888380  0.74480762  0.10473928     0.11900
H2168       H  0.01961401  0.75892027  0.11836890     0.11100
H2169       H  0.00241011  0.76116056  0.13952777     0.16500
H2170       H  0.99825485  0.72482912  0.17116541     0.12400
H2171       H  0.05072346  0.68608455  0.13372975     0.15300
H2172       H  0.05493366  0.72273197  0.10239416     0.15000
C2173       C  0.13390354  0.74187258  0.87361533    -0.17800
C2174       C  0.14134912  0.74855565  0.88566063    -0.20000
C2175       C  0.15616201  0.74444750  0.88913370     0.20600
C2176       C  0.16357174  0.73356681  0.88032448    -0.02900
C2177       C  0.15606781  0.72685794  0.86813467    -0.06000
C2178       C  0.14114477  0.73099457  0.86480105     0.20900
C2179       C  0.16347277  0.71596615  0.85934765     0.19100
C2180       C  0.17833934  0.71197135  0.86271774    -0.17500
C2181       C  0.18575936  0.71858940  0.87480306    -0.19700
C2182       C  0.17845801  0.72932766  0.88372405     0.20600
C2183       C  0.18576353  0.73586024  0.89599543    -0.32700
C2184       C  0.17845026  0.74668646  0.90487678     0.01300
C2185       C  0.16366148  0.75098568  0.90128789    -0.24100
C2186       C  0.13369500  0.72411909  0.85279009    -0.28600
C2187       C  0.14093301  0.71310986  0.84403941     0.06900
C2188       C  0.15588792  0.70919453  0.84738853    -0.27300
H2189       H  0.12244986  0.74519532  0.87121498     0.11600
H2190       H  0.13549544  0.75689853  0.89230164     0.12800
H2191       H  0.18420773  0.70365999  0.85604983     0.11900
H2192       H  0.19720934  0.71525369  0.87721139     0.11100
H2193       H  0.19720236  0.73258495  0.89855894     0.16500
H2194       H  0.15792300  0.75933451  0.90803150     0.12400
H2195       H  0.12218233  0.72722369  0.85043870     0.15300
H2196       H  0.16172376  0.70090571  0.84068720     0.15000
C2197       C  0.17465707  0.69855425  0.00468308    -0.17800
C2198       C  0.18130027  0.70593375  0.99253535    -0.20000
C2199       C  0.17592830  0.72000749  0.98780853     0.20600
C2200       C  0.16356991  0.72656584  0.99523226    -0.02900
C2201       C  0.15687564  0.71912222  0.00749241    -0.06000
C2202       C  0.16252181  0.70510520  0.01233135     0.20900
C2203       C  0.14466258  0.72581460  0.01502044     0.19100
C2204       C  0.13913754  0.73976960  0.01016621    -0.17500
C2205       C  0.14575759  0.74713194  0.99804405    -0.19700
C2206       C  0.15802908  0.74068412  0.99057193     0.20600
C2207       C  0.16502138  0.74826589  0.97872926    -0.32700
C2208       C  0.17761244  0.74203525  0.97151566     0.01300
C2209       C  0.18286315  0.72776733  0.97599786    -0.24100
C2210       C  0.15600638  0.69797088  0.02478169    -0.28600
C2211       C  0.14386298  0.70463673  0.03243048     0.06900
C2212       C  0.13825116  0.71854617  0.02736832    -0.27300
H2213       H  0.17910618  0.68776727  0.00818110     0.11600
H2214       H  0.19074459  0.70069949  0.98693223     0.12800
H2215       H  0.12974817  0.74504909  0.01581882     0.11900
H2216       H  0.14135815  0.75795633  0.99460060     0.11100
H2217       H  0.16085684  0.75921821  0.97538448     0.16500
H2218       H  0.19251386  0.72280570  0.97048799     0.12400
H2219       H  0.16036726  0.68720954  0.02844995     0.15300
H2220       H  0.12903708  0.72393327  0.03318088     0.15000
C2221       C  0.22665596  0.83161908  0.87197098    -0.17800
C2222       C  0.22031665  0.82529277  0.88481907    -0.20000
C2223       C  0.22554077  0.81145519  0.89028987     0.20600
C2224       C  0.23746808  0.80406927  0.88289706    -0.02900
C2225       C  0.24380907  0.81041362  0.86989821    -0.06000
C2226       C  0.23828853  0.82419081  0.86435535     0.20900
C2227       C  0.25548225  0.80283640  0.86231271     0.19100
C2228       C  0.26088460  0.78912655  0.86791337    -0.17500
C2229       C  0.25463770  0.78286263  0.88081663    -0.19700
C2230       C  0.24285646  0.79018144  0.88829621     0.20600
C2231       C  0.23611381  0.78363985  0.90083792    -0.32700
C2232       C  0.22386153  0.79063620  0.90796753     0.01300
C2233       C  0.21880467  0.80469124  0.90277879    -0.24100
C2234       C  0.24433987  0.83019666  0.85118381    -0.28600
C2235       C  0.25578903  0.82257858  0.84337659     0.06900
C2236       C  0.26139385  0.80896418  0.84913473    -0.27300
H2237       H  0.22232418  0.84223938  0.86787903     0.11600
H2238       H  0.21120668  0.83113951  0.89037533     0.12800
H2239       H  0.26985420  0.78317645  0.86223469     0.11900
H2240       H  0.25889287  0.77218315  0.88483767     0.11100
H2241       H  0.24011292  0.77280569  0.90472129     0.16500
H2242       H  0.20940937  0.81019531  0.90821938     0.12400
H2243       H  0.24004278  0.84079169  0.84702815     0.15300
H2244       H  0.27013731  0.80291540  0.84323460     0.15000
C2245       C  0.25852135  0.78631006  0.01602372    -0.17800
C2246       C  0.25296558  0.78037213  0.00263931    -0.20000
C2247       C  0.24085725  0.78728109  0.99529759     0.20600
C2248       C  0.23449181  0.80048519  0.00136000    -0.02900
C2249       C  0.24011282  0.80648638  0.01485886    -0.06000
C2250       C  0.25208245  0.79928199  0.02229114     0.20900
C2251       C  0.23359162  0.81955056  0.02102067     0.19100
C2252       C  0.22168538  0.82664781  0.01353103    -0.17500
C2253       C  0.21609147  0.82068640  0.00019397    -0.19700
C2254       C  0.22231678  0.80754109  0.99410313     0.20600
C2255       C  0.21634552  0.80114900  0.98108414    -0.32700
C2256       C  0.22230153  0.78772134  0.97519002     0.01300
C2257       C  0.23477395  0.78102240  0.98221993    -0.24100
C2258       C  0.25732564  0.80507248  0.03592312    -0.28600
C2259       C  0.25079085  0.81803340  0.04228205     0.06900
C2260       C  0.23895979  0.82522525  0.03463438    -0.27300
H2261       H  0.26776787  0.78066800  0.02154726     0.11600
H2262       H  0.25802476  0.77025629  0.99813124     0.12800
H2263       H  0.21658775  0.83672594  0.01807420     0.11900
H2264       H  0.20676392  0.82627173  0.99472916     0.11100
H2265       H  0.20680026  0.80648458  0.97573783     0.16500
H2266       H  0.23949242  0.77071516  0.97776930     0.12400
H2267       H  0.26645467  0.79937622  0.04153245     0.15300
H2268       H  0.23378009  0.83520595  0.03924135     0.15000
C2269       C  0.88432375  0.83205161  0.67690738    -0.17800
C2270       C  0.89730102  0.82616839  0.68352762    -0.20000
C2271       C  0.90483245  0.81393169  0.67701171     0.20600
C2272       C  0.89923526  0.80760421  0.66366827    -0.02900
C2273       C  0.88615203  0.81354242  0.65699235    -0.06000
C2274       C  0.87866712  0.82581206  0.66364523     0.20900
C2275       C  0.88054146  0.80714678  0.64369759     0.19100
C2276       C  0.88802463  0.79489633  0.63719514    -0.17500
C2277       C  0.90095764  0.78899587  0.64381551    -0.19700
C2278       C  0.90662745  0.79525139  0.65704587     0.20600
C2279       C  0.91942877  0.78919655  0.66386900    -0.32700
C2280       C  0.92497849  0.79523833  0.67730528     0.01300
C2281       C  0.91770524  0.80775225  0.68371369    -0.24100
C2282       C  0.86565970  0.83161549  0.65693709    -0.28600
C2283       C  0.85999910  0.82534836  0.64360667     0.06900
C2284       C  0.86755543  0.81308229  0.63710801    -0.27300
H2285       H  0.87869867  0.84147682  0.68217546     0.11600
H2286       H  0.90141025  0.83115089  0.69378490     0.12800
H2287       H  0.88385352  0.78984852  0.62699426     0.11900
H2288       H  0.90649934  0.77948717  0.63861118     0.11100
H2289       H  0.92492184  0.77957222  0.65881372     0.16500
H2290       H  0.92183548  0.81246503  0.69409428     0.12400
H2291       H  0.85999393  0.84098597  0.66220793     0.15300
H2292       H  0.86343755  0.80811914  0.62686536     0.15000
C2293       C  0.02684288  0.70716014  0.72542713    -0.17800
C2294       C  0.01565901  0.71511489  0.71775353    -0.20000
C2295       C  0.00998592  0.72866776  0.72350989     0.20600
C2296       C  0.01576126  0.73432814  0.73705861    -0.02900
C2297       C  0.02703900  0.72627279  0.74482204    -0.06000
C2298       C  0.03257092  0.71260269  0.73900456     0.20900
C2299       C  0.03273103  0.73188274  0.75841659     0.19100
C2300       C  0.02721327  0.74554423  0.76406751    -0.17500
C2301       C  0.01608635  0.75353547  0.75637037    -0.19700
C2302       C  0.01022088  0.74799132  0.74290589     0.20600
C2303       C  0.99883331  0.75580499  0.73527803    -0.32700
C2304       C  0.99280110  0.75012711  0.72188121     0.01300
C2305       C  0.99857012  0.73658308  0.71602201    -0.24100
C2306       C  0.04376991  0.70465281  0.74680490    -0.28600
C2307       C  0.04961865  0.71017603  0.76037894     0.06900
C2308       C  0.04387995  0.72380026  0.76610827    -0.27300
H2309       H  0.03098762  0.69671230  0.72075053     0.11600
H2310       H  0.01139565  0.71062281  0.70733588     0.12800
H2311       H  0.03149773  0.75005327  0.77446924     0.11900
H2312       H  0.01200280  0.76402624  0.76100519     0.11100
H2313       H  0.99458450  0.76625710  0.73986455     0.16500
H2314       H  0.99412921  0.73212918  0.70565697     0.12400
H2315       H  0.04799087  0.69424496  0.74215091     0.15300
H2316       H  0.04808377  0.72825450  0.77654287     0.15000
C2317       C  0.03120034  0.83252183  0.67382317    -0.17800
C2318       C  0.01805696  0.82692567  0.68020195    -0.20000
C2319       C  0.01161770  0.81368560  0.67471419     0.20600
C2320       C  0.01836703  0.80610211  0.66257057    -0.02900
C2321       C  0.03161435  0.81174755  0.65614038    -0.06000
C2322       C  0.03807148  0.82497604  0.66184667     0.20900
C2323       C  0.03846355  0.80408048  0.64410786     0.19100
C2324       C  0.03195764  0.79089945  0.63855213    -0.17500
C2325       C  0.01883094  0.78527656  0.64495047    -0.19700
C2326       C  0.01201072  0.79275851  0.65698735     0.20600
C2327       C  0.99913523  0.78694011  0.66374440    -0.32700
C2328       C  0.99259702  0.79419591  0.67611275     0.01300
C2329       C  0.99874762  0.80771074  0.68137376    -0.24100
C2330       C  0.05132274  0.83041601  0.65552909    -0.28600
C2331       C  0.05822422  0.82289105  0.64349109     0.06900
C2332       C  0.05170724  0.80970561  0.63785675    -0.27300
H2333       H  0.03603187  0.84271908  0.67830205     0.11600
H2334       H  0.01300384  0.83287723  0.68951212     0.12800
H2335       H  0.03706810  0.78489207  0.62930997     0.11900
H2336       H  0.01407270  0.77500878  0.64055589     0.11100
H2337       H  0.99447325  0.77650876  0.65962275     0.16500
H2338       H  0.99375896  0.81339205  0.69089138     0.12400
H2339       H  0.05626179  0.84047072  0.66015321     0.15300
H2340       H  0.05682746  0.80384008  0.62854312     0.15000
C2341       C  0.89438985  0.76396833  0.74820633    -0.17800
C2342       C  0.88177237  0.75771320  0.75504842    -0.20000
C2343       C  0.87847216  0.74244083  0.75314322     0.20600
C2344       C  0.88803362  0.73336588  0.74433363    -0.02900
C2345       C  0.90067940  0.73969428  0.73733118    -0.06000
C2346       C  0.90385772  0.75506659  0.73930088     0.20900
C2347       C  0.91002368  0.73068417  0.72821932     0.19100
C2348       C  0.90682041  0.71538479  0.72644061    -0.17500
C2349       C  0.89436796  0.70907810  0.73350974    -0.19700
C2350       C  0.88485941  0.71800534  0.74234951     0.20600
C2351       C  0.87207224  0.71187946  0.74899082    -0.32700
C2352       C  0.86220246  0.72092126  0.75738828     0.01300
C2353       C  0.86562359  0.73615595  0.75963602    -0.24100
C2354       C  0.91634971  0.76130574  0.73219113    -0.28600
C2355       C  0.92555014  0.75245546  0.72291402     0.06900
C2356       C  0.92232702  0.73716062  0.72095328    -0.27300
H2357       H  0.89668033  0.77580386  0.74978726     0.11600
H2358       H  0.87455013  0.76483815  0.76176120     0.12800
H2359       H  0.91390761  0.70831162  0.71953006     0.11900
H2360       H  0.89206354  0.69724890  0.73190714     0.11100
H2361       H  0.86975758  0.70006101  0.74741548     0.16500
H2362       H  0.85810821  0.74324469  0.76605106     0.12400
H2363       H  0.91869345  0.77316237  0.73358238     0.15300
H2364       H  0.92940973  0.73030640  0.71380892     0.15000
C2365       C  0.78558838  0.94296470  0.66913648    -0.17800
C2366       C  0.77921947  0.95531968  0.67645760    -0.20000
C2367       C  0.76436321  0.95961093  0.67347579     0.20600
C2368       C  0.75601072  0.95170923  0.66264984    -0.02900
C2369       C  0.76241317  0.93924332  0.65530919    -0.06000
C2370       C  0.77718832  0.93471539  0.65873616     0.20900
C2371       C  0.75387472  0.93107416  0.64484645     0.19100
C2372       C  0.73919408  0.93566112  0.64149294    -0.17500
C2373       C  0.73285559  0.94803429  0.64874209    -0.19700
C2374       C  0.74109640  0.95597079  0.65947341     0.20600
C2375       C  0.73449982  0.96777604  0.66742768    -0.32700
C2376       C  0.74250721  0.97523426  0.67871388     0.01300
C2377       C  0.75754901  0.97134058  0.68145244    -0.24100
C2378       C  0.78317561  0.92183373  0.65194739    -0.28600
C2379       C  0.77455370  0.91336154  0.64183054     0.06900
C2380       C  0.76000185  0.91823830  0.63817412    -0.27300
H2381       H  0.79699184  0.93969301  0.67181468     0.11600
H2382       H  0.78581505  0.96133856  0.68465648     0.12800
H2383       H  0.73252808  0.92953151  0.63343364     0.11900
H2384       H  0.72140447  0.95122139  0.64616175     0.11100
H2385       H  0.72291272  0.97075953  0.66520378     0.16500
H2386       H  0.76383577  0.97718764  0.69001831     0.12400
H2387       H  0.79449320  0.91837550  0.65470092     0.15300
H2388       H  0.75320560  0.91185089  0.63045169     0.15000
C2389       C  0.78157325  0.07694741  0.67918705    -0.17800
C2390       C  0.77423872  0.06545838  0.68687658    -0.20000
C2391       C  0.76157834  0.05857127  0.68065852     0.20600
C2392       C  0.75623152  0.06328704  0.66656207    -0.02900
C2393       C  0.76367351  0.07485136  0.65877596    -0.06000
C2394       C  0.77639593  0.08169374  0.66513400     0.20900
C2395       C  0.75838944  0.07955797  0.64465767     0.19100
C2396       C  0.74569482  0.07267642  0.63845998    -0.17500
C2397       C  0.73828843  0.06122823  0.64619582    -0.19700
C2398       C  0.74346216  0.05646074  0.66024997     0.20600
C2399       C  0.73610887  0.04500340  0.66810953    -0.32700
C2400       C  0.74140877  0.04023959  0.68217072     0.01300
C2401       C  0.75417887  0.04706927  0.68832543    -0.24100
C2402       C  0.78373613  0.09317297  0.65735951    -0.28600
C2403       C  0.77860189  0.09795673  0.64324073     0.06900
C2404       C  0.76588712  0.09104696  0.63698208    -0.27300
H2405       H  0.79132336  0.08210730  0.68422742     0.11600
H2406       H  0.77846239  0.06196780  0.69769996     0.12800
H2407       H  0.74148440  0.07615755  0.62762863     0.11900
H2408       H  0.72850785  0.05610085  0.64118100     0.11100
H2409       H  0.72631565  0.03975290  0.66323528     0.16500
H2410       H  0.75834925  0.04349235  0.69914772     0.12400
H2411       H  0.79339429  0.09840418  0.66245247     0.15300
H2412       H  0.76180832  0.09450495  0.62610913     0.15000
C2413       C  0.65900357  0.05230194  0.73158714    -0.17800
C2414       C  0.65044362  0.06244538  0.73988190    -0.20000
C2415       C  0.65663875  0.06965552  0.75234812     0.20600
C2416       C  0.67150064  0.06642231  0.75672127    -0.02900
C2417       C  0.68013664  0.05611081  0.74837959    -0.06000
C2418       C  0.67385304  0.04916959  0.73568988     0.20900
C2419       C  0.69506422  0.05289124  0.75260266     0.19100
C2420       C  0.70113689  0.05992581  0.76526978    -0.17500
C2421       C  0.69257130  0.07023711  0.77351830    -0.19700
C2422       C  0.67778078  0.07365694  0.76925547     0.20600
C2423       C  0.66925874  0.08441509  0.77705520    -0.32700
C2424       C  0.65455901  0.08802853  0.77242183     0.01300
C2425       C  0.64827386  0.08028505  0.76028057    -0.24100
C2426       C  0.68251038  0.03925970  0.72721487    -0.28600
C2427       C  0.69740456  0.03601940  0.73121380     0.06900
C2428       C  0.70362484  0.04279099  0.74400216    -0.27300
H2429       H  0.65403946  0.04698340  0.72189169     0.11600
H2430       H  0.63903018  0.06480409  0.73642395     0.12800
H2431       H  0.71255238  0.05756165  0.76871486     0.11900
H2432       H  0.69756584  0.07564809  0.78314758     0.11100
H2433       H  0.67426862  0.09022684  0.78642537     0.16500
H2434       H  0.63689736  0.08264963  0.75676522     0.12400
H2435       H  0.67755797  0.03401665  0.71746476     0.15300
H2436       H  0.71510485  0.04032090  0.74717020     0.15000
C2437       C  0.66336220  0.95124603  0.72766695    -0.17800
C2438       C  0.65662837  0.93886517  0.73452916    -0.20000
C2439       C  0.66466510  0.93007874  0.74483587     0.20600
C2440       C  0.67957866  0.93390658  0.74839494    -0.02900
C2441       C  0.68637777  0.94640557  0.74146887    -0.06000
C2442       C  0.67824398  0.95505603  0.73100182     0.20900
C2443       C  0.70134397  0.95015272  0.74492179     0.19100
C2444       C  0.70935049  0.94140694  0.75528047    -0.17500
C2445       C  0.70261496  0.92902220  0.76213776    -0.19700
C2446       C  0.68775363  0.92516576  0.75875669     0.20600
C2447       C  0.68101403  0.91260025  0.76539249    -0.32700
C2448       C  0.66624431  0.90852273  0.76169534     0.01300
C2449       C  0.65810819  0.91743448  0.75149926    -0.24100
C2450       C  0.68516012  0.96728357  0.72395789    -0.28600
C2451       C  0.70010576  0.97105406  0.72726919     0.06900
C2452       C  0.70807929  0.96248654  0.73786266    -0.27300
H2453       H  0.65695236  0.95779327  0.71967999     0.11600
H2454       H  0.64515731  0.93609904  0.73169184     0.12800
H2455       H  0.72085825  0.94410937  0.75803780     0.11900
H2456       H  0.70906188  0.92241008  0.77004264     0.11100
H2457       H  0.68745009  0.90578257  0.77312370     0.16500
H2458       H  0.64666876  0.91453201  0.74869048     0.12400
H2459       H  0.67889450  0.97384929  0.71586490     0.15300
H2460       H  0.71961616  0.96526134  0.74044992     0.15000
C2461       C  0.77710559  0.74645234  0.86603242    -0.17800
C2462       C  0.77140076  0.75171754  0.87961436    -0.20000
C2463       C  0.75899474  0.74473862  0.88625103     0.20600
C2464       C  0.75235607  0.73223680  0.87922288    -0.02900
C2465       C  0.75810684  0.72693773  0.86546938    -0.06000
C2466       C  0.77047859  0.73415246  0.85884427     0.20900
C2467       C  0.75139504  0.71456561  0.85828127     0.19100
C2468       C  0.73908665  0.70748048  0.86504928    -0.17500
C2469       C  0.73337579  0.71273419  0.87869489    -0.19700
C2470       C  0.73987138  0.72515517  0.88582968     0.20600
C2471       C  0.73400738  0.73075695  0.89932768    -0.32700
C2472       C  0.74045012  0.74337681  0.90628241     0.01300
C2473       C  0.75302532  0.75020082  0.89969359    -0.24100
C2474       C  0.77595062  0.72909135  0.84506134    -0.28600
C2475       C  0.76927932  0.71688020  0.83761852     0.06900
C2476       C  0.75701834  0.70960415  0.84441156    -0.27300
H2477       H  0.78664973  0.75209046  0.86108387     0.11600
H2478       H  0.77663332  0.76131128  0.88488012     0.12800
H2479       H  0.73380524  0.69794049  0.85973444     0.11900
H2480       H  0.72379566  0.70713647  0.88361950     0.11100
H2481       H  0.72427638  0.72543363  0.90427196     0.16500
H2482       H  0.75806620  0.75993656  0.90490042     0.12400
H2483       H  0.78536444  0.73490355  0.84014524     0.15300
H2484       H  0.75177223  0.70014865  0.83893672     0.15000
C2485       C  0.66094907  0.78378960  0.86991494    -0.17800
C2486       C  0.66659460  0.77799467  0.88334483    -0.20000
C2487       C  0.67817662  0.78538591  0.89095321     0.20600
C2488       C  0.68405687  0.79881597  0.88502416    -0.02900
C2489       C  0.67835385  0.80466245  0.87146208    -0.06000
C2490       C  0.66676362  0.79710252  0.86385906     0.20900
C2491       C  0.68434077  0.81799545  0.86546242     0.19100
C2492       C  0.69593284  0.82539452  0.87306309    -0.17500
C2493       C  0.70161247  0.81958629  0.88646358    -0.19700
C2494       C  0.69580051  0.80627236  0.89250105     0.20600
C2495       C  0.70183030  0.80005680  0.90562824    -0.32700
C2496       C  0.69637108  0.78638763  0.91135072     0.01300
C2497       C  0.68427853  0.77933461  0.90412445    -0.24100
C2498       C  0.66116955  0.80298069  0.85036200    -0.28600
C2499       C  0.66697059  0.81637900  0.84431580     0.06900
C2500       C  0.67865195  0.82372563  0.85197976    -0.27300
H2501       H  0.65205445  0.77782288  0.86423548     0.11600
H2502       H  0.66198174  0.76764325  0.88771651     0.12800
H2503       H  0.70065936  0.83565717  0.86860646     0.11900
H2504       H  0.71064538  0.82544497  0.89204007     0.11100
H2505       H  0.71114095  0.80560434  0.91107794     0.16500
H2506       H  0.68001073  0.76878123  0.90837842     0.12400
H2507       H  0.65222907  0.79711707  0.84467876     0.15300
H2508       H  0.68339491  0.83396350  0.84755276     0.15000
C2509       C  0.67247159  0.77389850  0.00913766    -0.17800
C2510       C  0.66631929  0.78030288  0.02206610    -0.20000
C2511       C  0.67060834  0.79472558  0.02666696     0.20600
C2512       C  0.68117574  0.80278941  0.01811291    -0.02900
C2513       C  0.68742988  0.79631385  0.00510857    -0.06000
C2514       C  0.68305384  0.78180391  0.00060499     0.20900
C2515       C  0.69813463  0.80433627  0.99667893     0.19100
C2516       C  0.70236741  0.81878209  0.00122268    -0.17500
C2517       C  0.69611589  0.82521941  0.01405673    -0.19700
C2518       C  0.68556788  0.81728784  0.02259204     0.20600
C2519       C  0.67945471  0.82359660  0.03558397    -0.32700
C2520       C  0.66906236  0.81560366  0.04436012     0.01300
C2521       C  0.66462915  0.80117512  0.03971698    -0.24100
C2522       C  0.68941025  0.77540544  0.98772043    -0.28600
C2523       C  0.70021308  0.78327198  0.97934606     0.06900
C2524       C  0.70448390  0.79774565  0.98391075    -0.27300
H2525       H  0.66900274  0.76274099  0.00584518     0.11600
H2526       H  0.65821843  0.77394139  0.02849723     0.12800
H2527       H  0.71055490  0.82509895  0.99486299     0.11900
H2528       H  0.69959735  0.83637734  0.01735991     0.11100
H2529       H  0.68294368  0.83474986  0.03881352     0.16500
H2530       H  0.65665348  0.79483005  0.04629197     0.12400
H2531       H  0.68611054  0.76421089  0.98435220     0.15300
H2532       H  0.71277447  0.80391095  0.97752416     0.15000
C2533       C  0.75019096  0.69988809  0.01141282    -0.17800
C2534       C  0.74311472  0.70592605  0.99877134    -0.20000
C2535       C  0.74838935  0.71923411  0.99222647     0.20600
C2536       C  0.76114739  0.72631565  0.99828240    -0.02900
C2537       C  0.76824695  0.72025523  0.01106861    -0.06000
C2538       C  0.76264472  0.70707423  0.01776534     0.20900
C2539       C  0.78073415  0.72759508  0.01734083     0.19100
C2540       C  0.78622925  0.74070942  0.01061813    -0.17500
C2541       C  0.77922922  0.74668882  0.99795036    -0.19700
C2542       C  0.76659186  0.73967556  0.99181132     0.20600
C2543       C  0.75905407  0.74606788  0.97960692    -0.32700
C2544       C  0.74596431  0.73944733  0.97385091     0.01300
C2545       C  0.74089046  0.72582678  0.98003295    -0.24100
C2546       C  0.76939085  0.70149420  0.03085566    -0.28600
C2547       C  0.78162421  0.70898087  0.03743597     0.06900
C2548       C  0.78733097  0.72191270  0.03040820    -0.27300
H2549       H  0.74577056  0.68971901  0.01636452     0.11600
H2550       H  0.73337059  0.70029956  0.99424587     0.12800
H2551       H  0.79583507  0.74646295  0.01527760     0.11900
H2552       H  0.78355881  0.75694563  0.99309643     0.11100
H2553       H  0.76312128  0.75652106  0.97493271     0.16500
H2554       H  0.73085408  0.72058893  0.97566864     0.12400
H2555       H  0.76495471  0.69142663  0.03596836     0.15300
H2556       H  0.79669365  0.72786974  0.03525031     0.15000
C2557       C  0.76967907  0.21421376  0.36728677    -0.17800
C2558       C  0.77658493  0.20964645  0.35401144    -0.20000
C2559       C  0.76791236  0.20533698  0.34167183     0.20600
C2560       C  0.75212015  0.20542753  0.34276001    -0.02900
C2561       C  0.74514230  0.21015799  0.35613110    -0.06000
C2562       C  0.75399161  0.21461201  0.36840346     0.20900
C2563       C  0.72934738  0.21059961  0.35715833     0.19100
C2564       C  0.72068734  0.20599431  0.34489207    -0.17500
C2565       C  0.72761316  0.20116230  0.33166774    -0.19700
C2566       C  0.74331382  0.20093237  0.33045782     0.20600
C2567       C  0.75037530  0.19641354  0.31714664    -0.32700
C2568       C  0.76611170  0.19656744  0.31592192     0.01300
C2569       C  0.77477939  0.20100957  0.32825240    -0.24100
C2570       C  0.74703796  0.21959079  0.38153225    -0.28600
C2571       C  0.73131833  0.22035174  0.38260326     0.06900
C2572       C  0.72252538  0.21576314  0.37037629    -0.27300
H2573       H  0.77661412  0.21757214  0.37664353     0.11600
H2574       H  0.78872045  0.20956040  0.35336991     0.12800
H2575       H  0.70855291  0.20620025  0.34549812     0.11900
H2576       H  0.72068229  0.19772327  0.32233699     0.11100
H2577       H  0.74361631  0.19304591  0.30766295     0.16500
H2578       H  0.78690759  0.20091362  0.32749604     0.12400
H2579       H  0.75395747  0.22323440  0.39078077     0.15300
H2580       H  0.71040454  0.21615047  0.37114583     0.15000
C2581       C  0.78424555  0.21368494  0.52778211    -0.17800
C2582       C  0.77681927  0.22087698  0.51599312    -0.20000
C2583       C  0.76110265  0.22075678  0.51517997     0.20600
C2584       C  0.75276716  0.21349193  0.52646842    -0.02900
C2585       C  0.76028148  0.20598667  0.53822839    -0.06000
C2586       C  0.77609448  0.20609375  0.53886248     0.20900
C2587       C  0.75199032  0.19819349  0.54920072     0.19100
C2588       C  0.73625650  0.19837363  0.54856194    -0.17500
C2589       C  0.72880173  0.20602418  0.53704678    -0.19700
C2590       C  0.73694487  0.21349899  0.52586664     0.20600
C2591       C  0.72957358  0.22068475  0.51392753    -0.32700
C2592       C  0.73784112  0.22745612  0.50236318     0.01300
C2593       C  0.75359523  0.22754237  0.50314144    -0.24100
C2594       C  0.78350200  0.19841825  0.55041707    -0.28600
C2595       C  0.77536306  0.19028247  0.56115585     0.06900
C2596       C  0.75959127  0.19024623  0.56050132    -0.27300
H2597       H  0.79638967  0.21388237  0.52811717     0.11600
H2598       H  0.78338109  0.22646229  0.50745346     0.12800
H2599       H  0.72970509  0.19252300  0.55693265     0.11900
H2600       H  0.71665711  0.20591094  0.53676663     0.11100
H2601       H  0.71743851  0.22047084  0.51331470     0.16500
H2602       H  0.76001967  0.23286004  0.49432127     0.12400
H2603       H  0.79565042  0.19840555  0.55078043     0.15300
H2604       H  0.75324035  0.18413475  0.56884666     0.15000
C2605       C  0.72721877  0.40750583  0.73998121    -0.17800
C2606       C  0.72237859  0.42060376  0.73276488    -0.20000
C2607       C  0.73272308  0.43166803  0.72854429     0.20600
C2608       C  0.74809736  0.42951443  0.73159765    -0.02900
C2609       C  0.75299239  0.41625986  0.73874850    -0.06000
C2610       C  0.74249354  0.40522779  0.74303521     0.20900
C2611       C  0.76839668  0.41406395  0.74160696     0.19100
C2612       C  0.77874154  0.42514316  0.73748172    -0.17500
C2613       C  0.77387468  0.43832481  0.73050958    -0.19700
C2614       C  0.75859788  0.44058744  0.72748741     0.20600
C2615       C  0.75367297  0.45370123  0.72035101    -0.32700
C2616       C  0.73838212  0.45591359  0.71715115     0.01300
C2617       C  0.72797203  0.44483124  0.72131292    -0.24100
C2618       C  0.74747639  0.39213508  0.75028312    -0.28600
C2619       C  0.76283326  0.38986316  0.75298939     0.06900
C2620       C  0.77320600  0.40084592  0.74857919    -0.27300
H2621       H  0.71901597  0.39914678  0.74315283     0.11600
H2622       H  0.71052937  0.42208872  0.73049971     0.12800
H2623       H  0.79060341  0.42361614  0.73965789     0.11900
H2624       H  0.78206962  0.44672972  0.72742961     0.11100
H2625       H  0.76183992  0.46204815  0.71708274     0.16500
H2626       H  0.71614630  0.44646361  0.71906168     0.12400
H2627       H  0.73947430  0.38363200  0.75360701     0.15300
H2628       H  0.78504592  0.39924739  0.75083600     0.15000
C2629       C  0.73975471  0.62338729  0.72419817    -0.17800
C2630       C  0.73483483  0.61092412  0.71608220    -0.20000
C2631       C  0.74504142  0.59980012  0.71150206     0.20600
C2632       C  0.76040142  0.60134360  0.71493247    -0.02900
C2633       C  0.76539739  0.61403836  0.72291916    -0.06000
C2634       C  0.75498345  0.62500381  0.72774995     0.20900
C2635       C  0.78076573  0.61563436  0.72626472     0.19100
C2636       C  0.79099035  0.60454873  0.72161397    -0.17500
C2637       C  0.78599954  0.59183191  0.71393401    -0.19700
C2638       C  0.77072725  0.59008421  0.71061795     0.20600
C2639       C  0.76555594  0.57717454  0.70329234    -0.32700
C2640       C  0.75025752  0.57554241  0.69993918     0.01300
C2641       C  0.74010948  0.58701254  0.70383505    -0.24100
C2642       C  0.75995094  0.63729487  0.73618732    -0.28600
C2643       C  0.77522688  0.63891540  0.73960268     0.06900
C2644       C  0.78559757  0.62815908  0.73441272    -0.27300
H2645       H  0.73162873  0.63172858  0.72776871     0.11600
H2646       H  0.72300321  0.60988817  0.71355294     0.12800
H2647       H  0.80283021  0.60561428  0.72409636     0.11900
H2648       H  0.79407675  0.58332388  0.71065522     0.11100
H2649       H  0.77340668  0.56836571  0.70023385     0.16500
H2650       H  0.72827168  0.58571211  0.70144497     0.12400
H2651       H  0.75195351  0.64565719  0.74000543     0.15300
H2652       H  0.79738897  0.62929036  0.73709809     0.15000
C2653       C  0.34798311  0.80686717  0.71120162    -0.17800
C2654       C  0.36085576  0.80182127  0.70376454    -0.20000
C2655       C  0.37462417  0.80092775  0.71130886     0.20600
C2656       C  0.37543585  0.80517699  0.72650454    -0.02900
C2657       C  0.36239153  0.80999619  0.73408702    -0.06000
C2658       C  0.34863360  0.81094696  0.72634792     0.20900
C2659       C  0.36312330  0.81387655  0.74938995     0.19100
C2660       C  0.37693125  0.81318310  0.75687827    -0.17500
C2661       C  0.38991076  0.80865375  0.74929243    -0.19700
C2662       C  0.38926403  0.80456742  0.73414086     0.20600
C2663       C  0.40217072  0.79975104  0.72653173    -0.32700
C2664       C  0.40138276  0.79518715  0.71148853     0.01300
C2665       C  0.38757410  0.79580479  0.70394966    -0.24100
C2666       C  0.33579423  0.81604068  0.73387177    -0.28600
C2667       C  0.33644133  0.81980886  0.74911303     0.06900
C2668       C  0.35006536  0.81851693  0.75687661    -0.27300
H2669       H  0.33749602  0.80752250  0.70511686     0.11600
H2670       H  0.36004880  0.79864755  0.69209339     0.12800
H2671       H  0.37770466  0.81620163  0.76859274     0.11900
H2672       H  0.40044719  0.80824466  0.75531105     0.11100
H2673       H  0.41276081  0.79918113  0.73244851     0.16500
H2674       H  0.38694833  0.79245437  0.69231082     0.12400
H2675       H  0.32524191  0.81696420  0.72791493     0.15300
H2676       H  0.35057778  0.82157799  0.76860338     0.15000
C2677       C  0.57058234  0.78037612  0.73494120    -0.17800
C2678       C  0.55801713  0.77519787  0.72710318    -0.20000
C2679       C  0.54702793  0.78531452  0.72200455     0.20600
C2680       C  0.54882070  0.80082469  0.72470223    -0.02900
C2681       C  0.56161288  0.80606486  0.73237304    -0.06000
C2682       C  0.57247360  0.79578231  0.73768656     0.20900
C2683       C  0.56345141  0.82159573  0.73483291     0.19100
C2684       C  0.55249349  0.83172770  0.72975222    -0.17500
C2685       C  0.53970569  0.82652153  0.72241444    -0.19700
C2686       C  0.53775858  0.81111392  0.71986954     0.20600
C2687       C  0.52486268  0.80582935  0.71270612    -0.32700
C2688       C  0.52295318  0.79041917  0.71000642     0.01300
C2689       C  0.53418053  0.78021817  0.71446341    -0.24100
C2690       C  0.58496333  0.80111283  0.74568280    -0.28600
C2691       C  0.58688182  0.81660840  0.74804066     0.06900
C2692       C  0.57613873  0.82674912  0.74245128    -0.27300
H2693       H  0.57882238  0.77231829  0.73887158     0.11600
H2694       H  0.55682127  0.76325433  0.72515750     0.12800
H2695       H  0.55374634  0.84368451  0.73158083     0.11900
H2696       H  0.53132290  0.83455465  0.71873907     0.11100
H2697       H  0.51630325  0.81374260  0.70915795     0.16500
H2698       H  0.53267911  0.76830588  0.71251112     0.12400
H2699       H  0.59328691  0.79326477  0.74986857     0.15300
H2700       H  0.57746377  0.83868962  0.74435885     0.15000
C2701       C  0.78741708  0.79792607  0.34705143    -0.17800
C2702       C  0.78055109  0.79194896  0.35978798    -0.20000
C2703       C  0.76488960  0.79067863  0.36052426     0.20600
C2704       C  0.75606020  0.79527073  0.34822820    -0.02900
C2705       C  0.76296351  0.80157374  0.33550918    -0.06000
C2706       C  0.77871701  0.80290519  0.33493592     0.20900
C2707       C  0.75408542  0.80678482  0.32349516     0.19100
C2708       C  0.73844781  0.80522100  0.32410113    -0.17500
C2709       C  0.73162120  0.79871322  0.33659302    -0.19700
C2710       C  0.74030979  0.79383353  0.34874982     0.20600
C2711       C  0.73350514  0.78785306  0.36155144    -0.32700
C2712       C  0.74219916  0.78378974  0.37400719     0.01300
C2713       C  0.75787225  0.78514742  0.37342413    -0.24100
C2714       C  0.78546670  0.80946344  0.32238761    -0.28600
C2715       C  0.77665238  0.81509261  0.31060801     0.06900
C2716       C  0.76098549  0.81365819  0.31119012    -0.27300
H2717       H  0.79952510  0.79887006  0.34677169     0.11600
H2718       H  0.78748503  0.78840514  0.36910129     0.12800
H2719       H  0.73148667  0.80910979  0.31494526     0.11900
H2720       H  0.71951864  0.79770224  0.33684146     0.11100
H2721       H  0.72139600  0.78693415  0.36206713     0.16500
H2722       H  0.76457386  0.78190181  0.38302049     0.12400
H2723       H  0.79755262  0.81066391  0.32203438     0.15300
H2724       H  0.75418097  0.81784912  0.30204008     0.15000
C2725       C  0.72966841  0.82012748  0.54260900    -0.17800
C2726       C  0.72262492  0.81447689  0.52982115    -0.20000
C2727       C  0.73086451  0.80638455  0.51912244     0.20600
C2728       C  0.74634339  0.80383075  0.52142002    -0.02900
C2729       C  0.75340053  0.80934837  0.53442523    -0.06000
C2730       C  0.74504889  0.81767160  0.54497955     0.20900
C2731       C  0.76884490  0.80669939  0.53675938     0.19100
C2732       C  0.77707420  0.79853036  0.52610451    -0.17500
C2733       C  0.77013468  0.79325070  0.51311701    -0.19700
C2734       C  0.75482062  0.79593220  0.51063546     0.20600
C2735       C  0.74787646  0.79100752  0.49748201    -0.32700
C2736       C  0.73249815  0.79353166  0.49512528     0.01300
C2737       C  0.72397793  0.80098847  0.50607124    -0.24100
C2738       C  0.75224939  0.82354570  0.55762702    -0.28600
C2739       C  0.76768105  0.82111058  0.55996256     0.06900
C2740       C  0.77584449  0.81247506  0.54957106    -0.27300
H2741       H  0.72309238  0.82647644  0.55062293     0.11600
H2742       H  0.71075382  0.81657189  0.52822576     0.12800
H2743       H  0.78892970  0.79637889  0.52772866     0.11900
H2744       H  0.77676889  0.78713110  0.50496993     0.11100
H2745       H  0.75441343  0.78511552  0.48908190     0.16500
H2746       H  0.71212719  0.80299855  0.50418767     0.12400
H2747       H  0.74580447  0.83000160  0.56565966     0.15300
H2748       H  0.78774646  0.81061556  0.55119535     0.15000
C2749       C  0.65108754  0.53148024  0.60425940    -0.17800
C2750       C  0.63935678  0.53123954  0.59392011    -0.20000
C2751       C  0.62602904  0.52360596  0.59720597     0.20600
C2752       C  0.62435471  0.51638364  0.61115785    -0.02900
C2753       C  0.63628218  0.51644746  0.62151683    -0.06000
C2754       C  0.64971279  0.52399656  0.61799769     0.20900
C2755       C  0.63486462  0.50876497  0.63526311     0.19100
C2756       C  0.62133995  0.50153007  0.63872127    -0.17500
C2757       C  0.60942646  0.50164031  0.62852326    -0.19700
C2758       C  0.61088987  0.50886416  0.61463387     0.20600
C2759       C  0.59929683  0.50840602  0.60401231    -0.32700
C2760       C  0.60117616  0.51507094  0.58986167     0.01300
C2761       C  0.61447905  0.52282780  0.58664867    -0.24100
C2762       C  0.66161133  0.52379868  0.62819171    -0.28600
C2763       C  0.66042130  0.51590520  0.64174356     0.06900
C2764       C  0.64703463  0.50838375  0.64522591    -0.27300
H2765       H  0.66131991  0.53735622  0.60142549     0.11600
H2766       H  0.64076513  0.53690678  0.58328514     0.12800
H2767       H  0.62001289  0.49568717  0.64927231     0.11900
H2768       H  0.59915219  0.49586234  0.63140090     0.11100
H2769       H  0.58906478  0.50239245  0.60654918     0.16500
H2770       H  0.61588237  0.52823319  0.57587581     0.12400
H2771       H  0.67195513  0.52951330  0.62541165     0.15300
H2772       H  0.64603485  0.50242495  0.65575527     0.15000
C2773       C  0.64686231  0.33140008  0.45731447    -0.17800
C2774       C  0.63755537  0.34401976  0.45597795    -0.20000
C2775       C  0.62565556  0.34412374  0.44571536     0.20600
C2776       C  0.62322311  0.33142776  0.43657529    -0.02900
C2777       C  0.63277563  0.31878792  0.43774743    -0.06000
C2778       C  0.64453398  0.31872102  0.44830176     0.20900
C2779       C  0.63048792  0.30619122  0.42844811     0.19100
C2780       C  0.61863071  0.30631586  0.41812866    -0.17500
C2781       C  0.60898026  0.31871475  0.41718023    -0.19700
C2782       C  0.61114334  0.33128379  0.42639364     0.20600
C2783       C  0.60133292  0.34362471  0.42575336    -0.32700
C2784       C  0.60365635  0.35627492  0.43486440     0.01300
C2785       C  0.61599207  0.35657767  0.44461710    -0.24100
C2786       C  0.65374785  0.30598382  0.44967382    -0.28600
C2787       C  0.65160289  0.29343278  0.44039347     0.06900
C2788       C  0.64003795  0.29367442  0.42970333    -0.27300
H2789       H  0.65588441  0.33155205  0.46542391     0.11600
H2790       H  0.63956972  0.35364686  0.46309464     0.12800
H2791       H  0.61672075  0.29675185  0.41089640     0.11900
H2792       H  0.59979516  0.31845863  0.40925728     0.11100
H2793       H  0.59187228  0.34341525  0.41814539     0.16500
H2794       H  0.61771430  0.36626143  0.45174860     0.12400
H2795       H  0.66279140  0.30596564  0.45776591     0.15300
H2796       H  0.63831463  0.28401124  0.42254467     0.15000
C2797       C  0.48061736  0.67983628  0.62627683    -0.17800
C2798       C  0.47968340  0.66757410  0.61652515    -0.20000
C2799       C  0.46753499  0.66623805  0.60664558     0.20600
C2800       C  0.45625852  0.67743305  0.60654722    -0.02900
C2801       C  0.45708871  0.68967406  0.61653564    -0.06000
C2802       C  0.46934028  0.69089160  0.62642819     0.20900
C2803       C  0.44563713  0.70066641  0.61663405     0.19100
C2804       C  0.43361243  0.69947657  0.60659760    -0.17500
C2805       C  0.43291419  0.68749130  0.59653586    -0.19700
C2806       C  0.44415353  0.67642603  0.59644289     0.20600
C2807       C  0.44354965  0.66443412  0.58634335    -0.32700
C2808       C  0.45464600  0.65322159  0.58646543     0.01300
C2809       C  0.46650952  0.65402138  0.59675253    -0.24100
C2810       C  0.47002689  0.70306568  0.63637579    -0.28600
C2811       C  0.45849727  0.71391194  0.63674159     0.06900
C2812       C  0.44636815  0.71263371  0.62678921    -0.27300
H2813       H  0.49011786  0.68061863  0.63378089     0.11600
H2814       H  0.48848974  0.65915521  0.61668183     0.12800
H2815       H  0.42475316  0.70784047  0.60650800     0.11900
H2816       H  0.42354920  0.68685119  0.58884905     0.11100
H2817       H  0.43438661  0.66374163  0.57840576     0.16500
H2818       H  0.47514397  0.64541144  0.59670066     0.12400
H2819       H  0.47937579  0.70388490  0.64405915     0.15300
H2820       H  0.43754324  0.72103328  0.62682536     0.15000
C2821       C  0.62255988  0.70690874  0.45418346    -0.17800
C2822       C  0.61241539  0.69500709  0.45449508    -0.20000
C2823       C  0.61457933  0.68245539  0.44525173     0.20600
C2824       C  0.62705609  0.68184749  0.43556738    -0.02900
C2825       C  0.63716543  0.69398360  0.43507230    -0.06000
C2826       C  0.63494105  0.70651319  0.44451148     0.20900
C2827       C  0.64947710  0.69357977  0.42515946     0.19100
C2828       C  0.65167817  0.68095972  0.41598748    -0.17500
C2829       C  0.64177769  0.66880867  0.41665336    -0.19700
C2830       C  0.62941510  0.66913845  0.42638726     0.20600
C2831       C  0.61930499  0.65707187  0.42705702    -0.32700
C2832       C  0.60669504  0.65780878  0.43648394     0.01300
C2833       C  0.60444121  0.67052396  0.44552663    -0.24100
C2834       C  0.64512214  0.71843686  0.44412372    -0.28600
C2835       C  0.65732763  0.71817770  0.43420352     0.06900
C2836       C  0.65938918  0.70577075  0.42466351    -0.27300
H2837       H  0.62068794  0.71645597  0.46147230     0.11600
H2838       H  0.60288751  0.69560014  0.46200572     0.12800
H2839       H  0.66109811  0.68045933  0.40833708     0.11900
H2840       H  0.64375133  0.65918130  0.40949896     0.11100
H2841       H  0.62101920  0.64730812  0.42001111     0.16500
H2842       H  0.59484881  0.67105653  0.45296699     0.12400
H2843       H  0.64341506  0.72803965  0.45138820     0.15300
H2844       H  0.66888165  0.70545468  0.41708983     0.15000
C2845       C  0.16146513  0.83951241  0.37113630    -0.17800
C2846       C  0.16955634  0.83223009  0.38242230    -0.20000
C2847       C  0.17399054  0.81718940  0.38070933     0.20600
C2848       C  0.17052496  0.80949665  0.36736644    -0.02900
C2849       C  0.16219583  0.81679507  0.35604205    -0.06000
C2850       C  0.15757957  0.83184935  0.35799406     0.20900
C2851       C  0.15825415  0.80895201  0.34291284     0.19100
C2852       C  0.16313332  0.79406300  0.34099981    -0.17500
C2853       C  0.17153122  0.78688230  0.35215491    -0.19700
C2854       C  0.17511293  0.79442621  0.36545985     0.20600
C2855       C  0.18289080  0.78708093  0.37702193    -0.32700
C2856       C  0.18588943  0.79452450  0.39057257     0.01300
C2857       C  0.18157604  0.80964448  0.39222567    -0.24100
C2858       C  0.14895471  0.83889840  0.34688879    -0.28600
C2859       C  0.14458380  0.83102193  0.33398797     0.06900
C2860       C  0.14934935  0.81606934  0.33203312    -0.27300
H2861       H  0.15805022  0.85108885  0.37278735     0.11600
H2862       H  0.17221037  0.83831825  0.39256417     0.12800
H2863       H  0.16032070  0.78791628  0.33093848     0.11900
H2864       H  0.17501895  0.77533223  0.35047210     0.11100
H2865       H  0.18613017  0.77541892  0.37565373     0.16500
H2866       H  0.18406757  0.81555521  0.40251328     0.12400
H2867       H  0.14528631  0.85040927  0.34848831     0.15300
H2868       H  0.14621601  0.81001668  0.32200510     0.15000
C2869       C  0.17245083  0.76862191  0.54309137    -0.17800
C2870       C  0.16493967  0.77526042  0.55517035    -0.20000
C2871       C  0.16678320  0.79059158  0.55829821     0.20600
C2872       C  0.17661671  0.79921541  0.54942984    -0.02900
C2873       C  0.18404984  0.79257722  0.53716148    -0.06000
C2874       C  0.18182817  0.77723242  0.53387239     0.20900
C2875       C  0.19321089  0.80145529  0.52782889     0.19100
C2876       C  0.19547151  0.81664523  0.53123187    -0.17500
C2877       C  0.18827962  0.82316244  0.54350985    -0.19700
C2878       C  0.17862857  0.81461317  0.55248289     0.20600
C2879       C  0.17059457  0.82134072  0.56414447    -0.32700
C2880       C  0.16034563  0.81298982  0.57270676     0.01300
C2881       C  0.15867878  0.79754327  0.56986900    -0.24100
C2882       C  0.18844423  0.77100047  0.52102286    -0.28600
C2883       C  0.19671880  0.78010747  0.51123417     0.06900
C2884       C  0.19938880  0.79517491  0.51487376    -0.27300
H2885       H  0.17062365  0.75683493  0.54073389     0.11600
H2886       H  0.15749051  0.76846034  0.56191158     0.12800
H2887       H  0.20255252  0.82356195  0.52421346     0.11900
H2888       H  0.18997739  0.83498943  0.54576822     0.11100
H2889       H  0.17193820  0.83325488  0.56609709     0.16500
H2890       H  0.15096866  0.79095717  0.57652333     0.12400
H2891       H  0.18632612  0.75938296  0.51810416     0.15300
H2892       H  0.20587350  0.80212821  0.50731504     0.15000
C2893       C  0.29095425  0.69571323  0.41369827    -0.17800
C2894       C  0.30232581  0.68492413  0.41250564    -0.20000
C2895       C  0.30212079  0.67206431  0.42156890     0.20600
C2896       C  0.29038090  0.67007025  0.43199032    -0.02900
C2897       C  0.27907223  0.68107625  0.43338107    -0.06000
C2898       C  0.27930729  0.69389564  0.42410033     0.20900
C2899       C  0.26755469  0.67925986  0.44406764     0.19100
C2900       C  0.26733772  0.66639091  0.45312319    -0.17500
C2901       C  0.27839420  0.65533628  0.45154771    -0.19700
C2902       C  0.28992708  0.65707375  0.44101567     0.20600
C2903       C  0.30100991  0.64603954  0.43933659    -0.32700
C2904       C  0.31275030  0.64803643  0.42907363     0.01300
C2905       C  0.31338667  0.66111678  0.42035238    -0.24100
C2906       C  0.26796243  0.70473178  0.42547479    -0.28600
C2907       C  0.25661701  0.70310218  0.43626077     0.06900
C2908       C  0.25648688  0.69036701  0.44553506    -0.27300
H2909       H  0.29130826  0.70552251  0.40653252     0.11600
H2910       H  0.31123781  0.68659761  0.40443604     0.12800
H2911       H  0.25857274  0.66484217  0.46137758     0.11900
H2912       H  0.27795011  0.64544468  0.45859543     0.11100
H2913       H  0.30066110  0.63599894  0.44619326     0.16500
H2914       H  0.32244980  0.66257756  0.41239528     0.12400
H2915       H  0.26820188  0.71463707  0.41843059     0.15300
H2916       H  0.24768129  0.68903686  0.45379354     0.07800
C2917       C  0.73452771  0.40250965  0.13835863    -0.17800
C2918       C  0.72900149  0.41537442  0.14554065    -0.20000
C2919       C  0.73888100  0.42608165  0.15144128     0.20600
C2920       C  0.75450547  0.42380126  0.14998831    -0.02900
C2921       C  0.76008284  0.41071071  0.14294363    -0.06000
C2922       C  0.75003547  0.40003518  0.13706931     0.20900
C2923       C  0.77570425  0.40827988  0.14185632     0.19100
C2924       C  0.78560132  0.41908601  0.14751469    -0.17500
C2925       C  0.78008293  0.43214982  0.15427672    -0.19700
C2926       C  0.76457636  0.43456811  0.15562595     0.20600
C2927       C  0.75899007  0.44755872  0.16254456    -0.32700
C2928       C  0.74345871  0.44988211  0.16420741     0.01300
C2929       C  0.73344843  0.43903055  0.15872636    -0.24100
C2930       C  0.75566865  0.38702779  0.13013246    -0.28600
C2931       C  0.77120903  0.38437702  0.12930638     0.06900
C2932       C  0.78115428  0.39506914  0.13519218    -0.27300
H2933       H  0.72665693  0.39442732  0.13390575     0.11600
H2934       H  0.71698347  0.41695329  0.14647060     0.12800
H2935       H  0.79761950  0.41743254  0.14671624     0.11900
H2936       H  0.78795771  0.44032975  0.15854483     0.11100
H2937       H  0.76678743  0.45578885  0.16686545     0.16500
H2938       H  0.72146994  0.44082497  0.15985036     0.12400
H2939       H  0.74794440  0.37878988  0.12569715     0.15300
H2940       H  0.79314751  0.39319824  0.13442359     0.15000
C2941       C  0.77298516  0.62178388  0.17631571    -0.17800
C2942       C  0.76790565  0.60896393  0.18382776    -0.20000
C2943       C  0.76328237  0.59626996  0.17577209     0.20600
C2944       C  0.76355855  0.59661096  0.15997291    -0.02900
C2945       C  0.76837358  0.60964711  0.15240015    -0.06000
C2946       C  0.77333137  0.62221309  0.16061302     0.20900
C2947       C  0.76839347  0.61002470  0.13660684     0.19100
C2948       C  0.76369414  0.59738835  0.12853707    -0.17500
C2949       C  0.75920507  0.58438522  0.13603047    -0.19700
C2950       C  0.75916549  0.58387134  0.15171668     0.20600
C2951       C  0.75489859  0.57079585  0.15927112    -0.32700
C2952       C  0.75458870  0.57034568  0.17498120     0.01300
C2953       C  0.75855530  0.58318611  0.18319143    -0.24100
C2954       C  0.77867217  0.63489920  0.15296016    -0.28600
C2955       C  0.77868564  0.63531553  0.13722859     0.06900
C2956       C  0.77332031  0.62293970  0.12914458    -0.27300
H2957       H  0.77667531  0.63135989  0.18279479     0.11600
H2958       H  0.76776731  0.60891284  0.19594841     0.12800
H2959       H  0.76365857  0.59749988  0.11641571     0.11900
H2960       H  0.75579065  0.57470668  0.12954800     0.11100
H2961       H  0.75160537  0.56099442  0.15289857     0.16500
H2962       H  0.75833303  0.58284014  0.19531355     0.12400
H2963       H  0.78271463  0.64449060  0.15921482     0.15300
H2964       H  0.77345813  0.62317310  0.11701864     0.15000
C2965       C  0.65050768  0.53002465  0.29191140    -0.17800
C2966       C  0.66247674  0.52926884  0.28180185    -0.20000
C2967       C  0.66061173  0.52254953  0.26772458     0.20600
C2968       C  0.64651876  0.51657942  0.26377722    -0.02900
C2969       C  0.63437337  0.51755340  0.27389546    -0.06000
C2970       C  0.63642168  0.52421892  0.28805866     0.20900
C2971       C  0.62021533  0.51180677  0.26985627     0.19100
C2972       C  0.61835579  0.50506551  0.25579392    -0.17500
C2973       C  0.63043853  0.50391333  0.24585150    -0.19700
C2974       C  0.64456941  0.50958606  0.24974698     0.20600
C2975       C  0.65678551  0.50835615  0.23988461    -0.32700
C2976       C  0.67081862  0.51438085  0.24369456     0.01300
C2977       C  0.67260160  0.52161017  0.25756406    -0.24100
C2978       C  0.62437015  0.52494066  0.29812988    -0.28600
C2979       C  0.61020903  0.51926163  0.29419127     0.06900
C2980       C  0.60820415  0.51280320  0.27997772    -0.27300
H2981       H  0.65226336  0.53518478  0.30274246     0.11600
H2982       H  0.67322672  0.53386876  0.28503107     0.12800
H2983       H  0.60756571  0.50059440  0.25251307     0.11900
H2984       H  0.62872835  0.49857474  0.23510205     0.11100
H2985       H  0.65532605  0.50292795  0.22913449     0.16500
H2986       H  0.68342596  0.52620317  0.26057530     0.12400
H2987       H  0.62600560  0.53006968  0.30899302     0.15300
H2988       H  0.59739676  0.50823957  0.27689301     0.15000
C2989       C  0.38643118  0.82749734  0.15525252    -0.17800
C2990       C  0.37369430  0.83367767  0.14843187    -0.20000
C2991       C  0.36334601  0.82440979  0.14108246     0.20600
C2992       C  0.36586640  0.80876776  0.14059701    -0.02900
C2993       C  0.37862949  0.80251760  0.14760449    -0.06000
C2994       C  0.38899852  0.81193591  0.15490906     0.20900
C2995       C  0.38098888  0.78684063  0.14731038     0.19100
C2996       C  0.37071737  0.77758601  0.13987664    -0.17500
C2997       C  0.35815347  0.78378942  0.13282695    -0.19700
C2998       C  0.35560297  0.79934243  0.13317044     0.20600
C2999       C  0.34287637  0.80558432  0.12635078    -0.32700
C3000       C  0.34011592  0.82113391  0.12697054     0.01300
C3001       C  0.35048217  0.83048485  0.13430012    -0.24100
C3002       C  0.40173142  0.80561254  0.16172135    -0.28600
C3003       C  0.40406638  0.78997804  0.16155141     0.06900
C3004       C  0.39359802  0.78067788  0.15439991    -0.27300
H3005       H  0.39425669  0.83489092  0.16083453     0.11600
H3006       H  0.37193487  0.84571420  0.14891025     0.12800
H3007       H  0.37240354  0.76553467  0.13950980     0.11900
H3008       H  0.35037754  0.77640201  0.12716996     0.11100
H3009       H  0.33495585  0.79823002  0.12087128     0.16500
H3010       H  0.34860068  0.84249986  0.13471443     0.12400
H3011       H  0.40971919  0.81282939  0.16731301     0.15300
H3012       H  0.39542374  0.76864289  0.15406761     0.15000
C3013       C  0.55710285  0.83013130  0.15783035    -0.17800
C3014       C  0.54359762  0.82451672  0.16339108    -0.20000
C3015       C  0.54152558  0.80899024  0.16492442     0.20600
C3016       C  0.55322565  0.79900131  0.16105377    -0.02900
C3017       C  0.56675821  0.80464706  0.15524934    -0.06000
C3018       C  0.56867333  0.82028953  0.15359447     0.20900
C3019       C  0.57823088  0.79462937  0.15079387     0.19100
C3020       C  0.57629450  0.77912151  0.15268529    -0.17500
C3021       C  0.56294921  0.77352969  0.15865903    -0.19700
C3022       C  0.55129796  0.78336403  0.16270028     0.20600
C3023       C  0.53764594  0.77783578  0.16808235    -0.32700
C3024       C  0.52582860  0.78773436  0.17154750     0.01300
C3025       C  0.52787695  0.80327788  0.17005698    -0.24100
C3026       C  0.58197643  0.82578154  0.14737646    -0.28600
C3027       C  0.59313873  0.81581042  0.14237165     0.06900
C3028       C  0.59129283  0.80028762  0.14422695    -0.27300
H3029       H  0.55840959  0.84216291  0.15661850     0.11600
H3030       H  0.53472659  0.83231162  0.16637815     0.12800
H3031       H  0.58504485  0.77130757  0.14940133     0.11900
H3032       H  0.56164756  0.76150116  0.15989499     0.11100
H3033       H  0.53607698  0.76581926  0.16912023     0.16500
H3034       H  0.51885662  0.81094604  0.17293114     0.12400
H3035       H  0.58338067  0.83777252  0.14584244     0.15300
H3036       H  0.60001106  0.79263418  0.14048585     0.15000
C3037       C  0.44416304  0.65819437  0.25322078    -0.17800
C3038       C  0.44410872  0.66863711  0.24154723    -0.20000
C3039       C  0.45109404  0.68259903  0.24331836     0.20600
C3040       C  0.45814239  0.68612703  0.25701918    -0.02900
C3041       C  0.45799604  0.67568610  0.26886275    -0.06000
C3042       C  0.45108031  0.66161294  0.26688989     0.20900
C3043       C  0.46489724  0.67926791  0.28260778     0.19100
C3044       C  0.47189751  0.69323762  0.28437695    -0.17500
C3045       C  0.47224672  0.70350814  0.27255226    -0.19700
C3046       C  0.46546965  0.70001911  0.25883442     0.20600
C3047       C  0.46600220  0.71010480  0.24684302    -0.32700
C3048       C  0.45896044  0.70663644  0.23324379     0.01300
C3049       C  0.45133047  0.69302234  0.23158002    -0.24100
C3050       C  0.45131889  0.65114001  0.27856572    -0.28600
C3051       C  0.45827978  0.65456106  0.29224663     0.06900
C3052       C  0.46487436  0.66872938  0.29425645    -0.27300
H3053       H  0.43881035  0.64742473  0.25154975     0.11600
H3054       H  0.43871187  0.66574343  0.23108795     0.12800
H3055       H  0.47724167  0.69615656  0.29485666     0.11900
H3056       H  0.47785537  0.71416202  0.27411980     0.11100
H3057       H  0.47178907  0.72071665  0.24809451     0.16500
H3058       H  0.44600548  0.69038497  0.22100490     0.12400
H3059       H  0.44602823  0.64032792  0.27698650     0.15300
H3060       H  0.47037497  0.67141709  0.30471460     0.15000
C3061       C  0.14685532  0.42277163  0.72550665    -0.17800
C3062       C  0.13970228  0.40990114  0.73081369    -0.20000
C3063       C  0.14715468  0.40006163  0.74058587     0.20600
C3064       C  0.16207165  0.40303302  0.74484085    -0.02900
C3065       C  0.16936980  0.41596240  0.73934641    -0.06000
C3066       C  0.16161164  0.42597509  0.72981693     0.20900
C3067       C  0.18431550  0.41899006  0.74355238     0.19100
C3068       C  0.19179826  0.40903803  0.75322145    -0.17500
C3069       C  0.18449006  0.39630078  0.75880497    -0.19700
C3070       C  0.16960152  0.39321987  0.75472668     0.20600
C3071       C  0.16204885  0.38061858  0.76046441    -0.32700
C3072       C  0.14705535  0.37768310  0.75640508     0.01300
C3073       C  0.13981457  0.38743986  0.74631952    -0.24100
C3074       C  0.16864522  0.43913951  0.72494634    -0.28600
C3075       C  0.18344993  0.44225749  0.72914645     0.06900
C3076       C  0.19136846  0.43203825  0.73819892    -0.27300
H3077       H  0.14079443  0.43029333  0.71812013     0.11600
H3078       H  0.12825397  0.40773609  0.72740944     0.12800
H3079       H  0.20325683  0.41119013  0.75659738     0.11900
H3080       H  0.19046649  0.38889338  0.76637046     0.11100
H3081       H  0.16786028  0.37317600  0.76810817     0.16500
H3082       H  0.12829196  0.38549593  0.74311338     0.12400
H3083       H  0.16263141  0.44698972  0.71784538     0.15300
H3084       H  0.20280874  0.43451081  0.74143977     0.15000
C3085       C  0.18114325  0.61170184  0.75562654    -0.17800
C3086       C  0.18921465  0.59982573  0.74915082    -0.20000
C3087       C  0.18192465  0.58917143  0.74018146     0.20600
C3088       C  0.16639128  0.59075878  0.73743226    -0.02900
C3089       C  0.15828384  0.60284922  0.74382760    -0.06000
C3090       C  0.16564867  0.61321993  0.75316217     0.20900
C3091       C  0.14274198  0.60433581  0.74115884     0.19100
C3092       C  0.13551147  0.59389575  0.73191458    -0.17500
C3093       C  0.14347920  0.58181716  0.72576309    -0.19700
C3094       C  0.15885125  0.58002886  0.72863544     0.20600
C3095       C  0.16669698  0.56746166  0.72323827    -0.32700
C3096       C  0.18205996  0.56561557  0.72619565     0.01300
C3097       C  0.18973920  0.57671024  0.73430614    -0.24100
C3098       C  0.15735601  0.62475677  0.76007134    -0.28600
C3099       C  0.14175990  0.62615417  0.75774622     0.06900
C3100       C  0.13462441  0.61601211  0.74803231    -0.27300
H3101       H  0.18699939  0.61961042  0.76271241     0.11600
H3102       H  0.20111572  0.59881868  0.75139124     0.12800
H3103       H  0.12361069  0.59490297  0.72967334     0.11900
H3104       H  0.13755892  0.57373891  0.71892520     0.11100
H3105       H  0.16081129  0.55894870  0.71689354     0.16500
H3106       H  0.20158246  0.57524616  0.73665053     0.12400
H3107       H  0.16310486  0.63260854  0.76728856     0.15300
H3108       H  0.12265912  0.61689930  0.74613520     0.15000
C3109       C  0.30125977  0.47956150  0.62583204    -0.17800
C3110       C  0.29208941  0.47979025  0.63854970    -0.20000
C3111       C  0.27973127  0.48957769  0.63934334     0.20600
C3112       C  0.27639280  0.49897680  0.62704187    -0.02900
C3113       C  0.28545301  0.49850409  0.61407655    -0.06000
C3114       C  0.29810968  0.48896603  0.61360986     0.20900
C3115       C  0.28203874  0.50782149  0.60172713     0.19100
C3116       C  0.26954468  0.51742908  0.60243629    -0.17500
C3117       C  0.26073894  0.51810313  0.61538475    -0.19700
C3118       C  0.26415226  0.50904035  0.62777998     0.20600
C3119       C  0.25561078  0.50996006  0.64093178    -0.32700
C3120       C  0.25884406  0.50064031  0.65320382     0.01300
C3121       C  0.27076365  0.49029180  0.65226461    -0.24100
C3122       C  0.30759757  0.48928212  0.60109341    -0.28600
C3123       C  0.30445566  0.49877146  0.58889425     0.06900
C3124       C  0.29143120  0.50769630  0.58908860    -0.27300
H3125       H  0.31089760  0.47211354  0.62560609     0.11600
H3126       H  0.29480890  0.47248384  0.64786537     0.12800
H3127       H  0.26674311  0.52463907  0.59307244     0.11900
H3128       H  0.25130268  0.52580034  0.61574065     0.11100
H3129       H  0.24627264  0.51777098  0.64154672     0.16500
H3130       H  0.27326861  0.48308815  0.66172846     0.12400
H3131       H  0.31754949  0.48224874  0.60089458     0.15300
H3132       H  0.28902855  0.51507462  0.57973515     0.15000
C3133       C  0.37444098  0.19601178  0.71472717    -0.17800
C3134       C  0.36175327  0.18887018  0.72046905    -0.20000
C3135       C  0.35292126  0.19592174  0.73142776     0.20600
C3136       C  0.35666850  0.21048092  0.73635230    -0.02900
C3137       C  0.36938364  0.21776756  0.73043832    -0.06000
C3138       C  0.37843788  0.21035731  0.71977898     0.20900
C3139       C  0.37325070  0.23228533  0.73546918     0.19100
C3140       C  0.36427663  0.23940880  0.74626644    -0.17500
C3141       C  0.35174363  0.23212053  0.75222359    -0.19700
C3142       C  0.34791871  0.21762265  0.74741843     0.20600
C3143       C  0.33568707  0.21003838  0.75371369    -0.32700
C3144       C  0.33207814  0.19533449  0.74917286     0.01300
C3145       C  0.34063237  0.18850491  0.73778425    -0.24100
C3146       C  0.39156280  0.21723409  0.71467551    -0.28600
C3147       C  0.39564680  0.23151537  0.71987829     0.06900
C3148       C  0.38626685  0.23919342  0.72994646    -0.27300
H3149       H  0.38124735  0.19022623  0.70648035     0.11600
H3150       H  0.35899986  0.17771251  0.71652746     0.12800
H3151       H  0.36708642  0.25052443  0.75028147     0.11900
H3152       H  0.34512672  0.23776843  0.76071313     0.11100
H3153       H  0.32917618  0.21558866  0.76231706     0.16500
H3154       H  0.33804074  0.17725805  0.73405132     0.12400
H3155       H  0.39875696  0.21138744  0.70679089     0.15300
H3156       H  0.38949234  0.25018413  0.73401241     0.15000
C3157       C  0.55195998  0.22367042  0.73783219    -0.17800
C3158       C  0.56261330  0.21619619  0.74663060    -0.20000
C3159       C  0.56108372  0.20083523  0.74979212     0.20600
C3160       C  0.54876304  0.19288797  0.74392655    -0.02900
C3161       C  0.53790375  0.20047974  0.73521448    -0.06000
C3162       C  0.53950050  0.21595493  0.73216960     0.20900
C3163       C  0.52535141  0.19262931  0.72974108     0.19100
C3164       C  0.52392579  0.17722069  0.73272316    -0.17500
C3165       C  0.53479597  0.16965282  0.74116032    -0.19700
C3166       C  0.54722439  0.17738276  0.74685572     0.20600
C3167       C  0.55811938  0.16990061  0.75544214    -0.32700
C3168       C  0.57032641  0.17779230  0.76144698     0.01300
C3169       C  0.57166480  0.19327922  0.75868328    -0.24100
C3170       C  0.52841651  0.22351772  0.72387036    -0.28600
C3171       C  0.51557020  0.21588561  0.71890303     0.06900
C3172       C  0.51427593  0.20038038  0.72166883    -0.27300
H3173       H  0.55336948  0.23554416  0.73561512     0.11600
H3174       H  0.57204829  0.22244558  0.75098773     0.12800
H3175       H  0.51435359  0.17102963  0.72858891     0.11900
H3176       H  0.53342289  0.15776320  0.74332213     0.11100
H3177       H  0.55698809  0.15798769  0.75765817     0.16500
H3178       H  0.58113490  0.19938280  0.76318373     0.12400
H3179       H  0.52947882  0.23546902  0.72187487     0.15300
H3180       H  0.50452394  0.19435687  0.71770309     0.15000
C3181       C  0.47983227  0.31015891  0.61476165    -0.17800
C3182       C  0.47983298  0.31973160  0.60235407    -0.20000
C3183       C  0.47058779  0.33251282  0.60209179     0.20600
C3184       C  0.46102905  0.33552256  0.61435231    -0.02900
C3185       C  0.46089159  0.32575341  0.62679758    -0.06000
C3186       C  0.47050398  0.31313987  0.62707054     0.20900
C3187       C  0.45129599  0.32871569  0.63903269     0.19100
C3188       C  0.44185889  0.34136905  0.63865648    -0.17500
C3189       C  0.44215186  0.35117231  0.62641779    -0.19700
C3190       C  0.45178624  0.34841212  0.61428778     0.20600
C3191       C  0.45251704  0.35842936  0.60220826    -0.32700
C3192       C  0.46218028  0.35561810  0.59006768     0.01300
C3193       C  0.47095027  0.34248516  0.58992983    -0.24100
C3194       C  0.47072504  0.30378475  0.63968410    -0.28600
C3195       C  0.46130700  0.30670038  0.65198351     0.06900
C3196       C  0.45145566  0.31907861  0.65148443    -0.27300
H3197       H  0.48721323  0.30046238  0.61477125     0.11600
H3198       H  0.48721865  0.31724219  0.59304102     0.12800
H3199       H  0.43438861  0.34379500  0.64792046     0.11900
H3200       H  0.43491876  0.36097998  0.62649016     0.11100
H3201       H  0.44555020  0.36843317  0.60225468     0.16500
H3202       H  0.47844285  0.34031348  0.58061523     0.12400
H3203       H  0.47813388  0.29411254  0.63982910     0.15300
H3204       H  0.44416237  0.32140256  0.66091731     0.15000
C3205       C  0.15758172  0.18318934  0.37836560    -0.17800
C3206       C  0.15139461  0.17596560  0.36595160    -0.20000
C3207       C  0.14887975  0.18390309  0.35262268     0.20600
C3208       C  0.15305312  0.19915077  0.35162899    -0.02900
C3209       C  0.15951267  0.20636739  0.36407212    -0.06000
C3210       C  0.16148340  0.19841856  0.37758998     0.20900
C3211       C  0.16363030  0.22162676  0.36310335     0.19100
C3212       C  0.16151590  0.22944366  0.34962823    -0.17500
C3213       C  0.15489042  0.22235281  0.33736117    -0.19700
C3214       C  0.15041948  0.20729889  0.33833434     0.20600
C3215       C  0.14308694  0.20033095  0.32637214    -0.32700
C3216       C  0.13869961  0.18524671  0.32741363     0.01300
C3217       C  0.14193587  0.17697889  0.34039607    -0.24100
C3218       C  0.16701610  0.20591727  0.39018460    -0.28600
C3219       C  0.17079845  0.22120142  0.38940137     0.06900
C3220       C  0.16941439  0.22889970  0.37573791    -0.27300
H3221       H  0.15913723  0.17691231  0.38863874     0.11600
H3222       H  0.14829908  0.16424814  0.36687159     0.12800
H3223       H  0.16469456  0.24113394  0.34867813     0.11900
H3224       H  0.15307752  0.22870588  0.32717345     0.11100
H3225       H  0.14080844  0.20662056  0.31622890     0.16500
H3226       H  0.13854250  0.16532583  0.34116808     0.12400
H3227       H  0.16834443  0.19984918  0.40061431     0.15300
H3228       H  0.17230642  0.24068894  0.37507588     0.15000
C3229       C  0.17620130  0.21590744  0.56321818    -0.17800
C3230       C  0.18238756  0.22208208  0.55019908    -0.20000
C3231       C  0.17350648  0.22422832  0.53740636     0.20600
C3232       C  0.15818842  0.22026123  0.53781918    -0.02900
C3233       C  0.15189923  0.21427137  0.55101663    -0.06000
C3234       C  0.16098827  0.21192304  0.56372586     0.20900
C3235       C  0.13653738  0.21048903  0.55142804     0.19100
C3236       C  0.12765746  0.21259652  0.53865531    -0.17500
C3237       C  0.13393615  0.21829179  0.52551653    -0.19700
C3238       C  0.14917319  0.22211802  0.52499184     0.20600
C3239       C  0.15556177  0.22759257  0.51178567    -0.32700
C3240       C  0.17081326  0.23145460  0.51121462     0.01300
C3241       C  0.17968757  0.23001345  0.52413393    -0.24100
C3242       C  0.15471104  0.20554322  0.57665274    -0.28600
C3243       C  0.13939561  0.20183822  0.57712631     0.06900
C3244       C  0.13036420  0.20450516  0.56453934    -0.27300
H3245       H  0.18332962  0.21422238  0.57289254     0.11600
H3246       H  0.19416221  0.22503126  0.55008544     0.12800
H3247       H  0.11585658  0.20970532  0.53878359     0.11900
H3248       H  0.12688469  0.21967421  0.51574837     0.11100
H3249       H  0.14862216  0.22887915  0.50191720     0.16500
H3250       H  0.19147896  0.23289842  0.52370315     0.12400
H3251       H  0.16168641  0.20359822  0.58639623     0.15300
H3252       H  0.11858394  0.20151374  0.56480771     0.15000
C3253       C  0.29057884  0.31923246  0.41425913    -0.17800
C3254       C  0.27826882  0.30959628  0.41535453    -0.20000
C3255       C  0.26853969  0.31045274  0.42768729     0.20600
C3256       C  0.27115714  0.32119425  0.43897349    -0.02900
C3257       C  0.28340950  0.33106558  0.43774851    -0.06000
C3258       C  0.29324835  0.33000477  0.42538511     0.20900
C3259       C  0.28575649  0.34205086  0.44886340     0.19100
C3260       C  0.27605614  0.34292368  0.46119100    -0.17500
C3261       C  0.26408246  0.33295679  0.46254159    -0.19700
C3262       C  0.26154342  0.32207315  0.45150611     0.20600
C3263       C  0.24959786  0.31201196  0.45283291    -0.32700
C3264       C  0.24695106  0.30125985  0.44167641     0.01300
C3265       C  0.25633215  0.30066762  0.42902694    -0.24100
C3266       C  0.30540809  0.33990905  0.42428011    -0.28600
C3267       C  0.30742552  0.35111581  0.43510241     0.06900
C3268       C  0.29765141  0.35210524  0.44736197    -0.27300
H3269       H  0.29795860  0.31832104  0.40466337     0.11600
H3270       H  0.27640921  0.30140544  0.40659649     0.12800
H3271       H  0.27774718  0.35130433  0.46980499     0.11900
H3272       H  0.25677593  0.33379000  0.47220028     0.11100
H3273       H  0.24226959  0.31263884  0.46249554     0.16500
H3274       H  0.25439001  0.29232331  0.42042924     0.12400
H3275       H  0.31294298  0.33930015  0.41476998     0.15300
H3276       H  0.29932913  0.36076266  0.45572056     0.15000
C3277       C  0.35030732  0.21840637  0.13707474    -0.17800
C3278       C  0.36140875  0.22511176  0.14587182    -0.20000
C3279       C  0.37274695  0.21634823  0.15245351     0.20600
C3280       C  0.37275510  0.20063652  0.15032695    -0.02900
C3281       C  0.36148449  0.19386351  0.14157995    -0.06000
C3282       C  0.35029384  0.20280817  0.13478334     0.20900
C3283       C  0.36152387  0.17815486  0.13951094     0.19100
C3284       C  0.37277463  0.16936150  0.14616606    -0.17500
C3285       C  0.38403360  0.17608493  0.15467332    -0.19700
C3286       C  0.38416473  0.19169780  0.15673646     0.20600
C3287       C  0.39570030  0.19854196  0.16482197    -0.32700
C3288       C  0.39598109  0.21420255  0.16670487     0.01300
C3289       C  0.38428334  0.22302596  0.16079897    -0.24100
C3290       C  0.33933030  0.19598516  0.12580977    -0.28600
C3291       C  0.33927416  0.18031877  0.12381614     0.06900
C3292       C  0.35036747  0.17149903  0.13075963    -0.27300
H3293       H  0.34176390  0.22543575  0.13200518     0.11600
H3294       H  0.36122787  0.23718345  0.14738011     0.12800
H3295       H  0.37294284  0.15728590  0.14468035     0.11900
H3296       H  0.39270654  0.16907840  0.15955476     0.11100
H3297       H  0.40459298  0.19167386  0.16951571     0.16500
H3298       H  0.38450513  0.23511922  0.16213615     0.12400
H3299       H  0.33070427  0.20281707  0.12060467     0.15300
H3300       H  0.35046821  0.15943499  0.12915499     0.15000
C3301       C  0.54734289  0.17695929  0.15740832    -0.17800
C3302       C  0.53498746  0.18345820  0.16452125    -0.20000
C3303       C  0.53244785  0.19897195  0.16352048     0.20600
C3304       C  0.54263358  0.20811879  0.15561715    -0.02900
C3305       C  0.55500659  0.20154176  0.14830987    -0.06000
C3306       C  0.55727560  0.18587878  0.14913967     0.20900
C3307       C  0.56486034  0.21056610  0.13985917     0.19100
C3308       C  0.56252428  0.22614750  0.13920750    -0.17500
C3309       C  0.55031583  0.23270445  0.14659229    -0.19700
C3310       C  0.54020931  0.22376213  0.15464427     0.20600
C3311       C  0.52743437  0.23008709  0.16128733    -0.32700
C3312       C  0.51691383  0.22088930  0.16850327     0.01300
C3313       C  0.51963752  0.20542281  0.16987281    -0.24100
C3314       C  0.56922945  0.17932996  0.14139983    -0.28600
C3315       C  0.57883700  0.18816168  0.13262889     0.06900
C3316       C  0.57668964  0.20379421  0.13199347    -0.27300
H3317       H  0.54898484  0.16491860  0.15815472     0.11600
H3318       H  0.52728861  0.17632011  0.17060853     0.12800
H3319       H  0.57002904  0.23323732  0.13283098     0.11900
H3320       H  0.54861123  0.24473106  0.14576060     0.11100
H3321       H  0.52530478  0.24202852  0.16017961     0.16500
H3322       H  0.51163132  0.19835975  0.17565565     0.12400
H3323       H  0.57070318  0.16725615  0.14181064     0.15300
H3324       H  0.58417791  0.21066937  0.12536314     0.15000
C3325       C  0.44096038  0.31756222  0.28399834    -0.17800
C3326       C  0.44022956  0.30698964  0.27245271    -0.20000
C3327       C  0.44759520  0.30958376  0.25882182     0.20600
C3328       C  0.45583674  0.32293406  0.25681173    -0.02900
C3329       C  0.45635525  0.33371634  0.26836452    -0.06000
C3330       C  0.44893200  0.33098010  0.28204390     0.20900
C3331       C  0.46422808  0.34725819  0.26618856     0.19100
C3332       C  0.47173485  0.34977679  0.25261836    -0.17500
C3333       C  0.47145140  0.33897151  0.24127115    -0.19700
C3334       C  0.46350755  0.32554622  0.24323918     0.20600
C3335       C  0.46302101  0.31472637  0.23185465    -0.32700
C3336       C  0.45457617  0.30157520  0.23369195     0.01300
C3337       C  0.44685221  0.29908452  0.24716079    -0.24100
C3338       C  0.44949370  0.34176965  0.29346388    -0.28600
C3339       C  0.45706694  0.35541591  0.29125190     0.06900
C3340       C  0.46440653  0.35806939  0.27758793    -0.27300
H3341       H  0.43518669  0.31529510  0.29442249     0.11600
H3342       H  0.43390808  0.29677063  0.27419065     0.12800
H3343       H  0.47784937  0.36010471  0.25078654     0.11900
H3344       H  0.47736323  0.34116384  0.23090770     0.11100
H3345       H  0.46893693  0.31666635  0.22143309     0.16500
H3346       H  0.44049320  0.28884155  0.24865083     0.12400
H3347       H  0.44370757  0.33970514  0.30392689     0.15300
H3348       H  0.47040564  0.36849047  0.27588265     0.15000
C3349       C  0.17537756  0.38985588  0.13782129    -0.17800
C3350       C  0.18278926  0.40116682  0.14575180    -0.20000
C3351       C  0.17549004  0.41479233  0.14894905     0.20600
C3352       C  0.16051765  0.41695714  0.14422371    -0.02900
C3353       C  0.15302536  0.40554159  0.13634312    -0.06000
C3354       C  0.16052203  0.39195776  0.13303753     0.20900
C3355       C  0.13803951  0.40776592  0.13172108     0.19100
C3356       C  0.13071797  0.42135450  0.13488247    -0.17500
C3357       C  0.13817209  0.43269745  0.14259076    -0.19700
C3358       C  0.15303666  0.43059014  0.14726268     0.20600
C3359       C  0.16059102  0.44202074  0.15471944    -0.32700
C3360       C  0.17559751  0.44016976  0.15912295     0.01300
C3361       C  0.18293557  0.42641563  0.15650796    -0.24100
C3362       C  0.15298853  0.38072899  0.12505580    -0.28600
C3363       C  0.13799588  0.38284686  0.12066885     0.06900
C3364       C  0.13060802  0.39636340  0.12402498    -0.27300
H3365       H  0.18126916  0.37946753  0.13541582     0.11600
H3366       H  0.19426895  0.39930292  0.14927902     0.12800
H3367       H  0.11923385  0.42322203  0.13136302     0.11900
H3368       H  0.13232950  0.44314841  0.14484993     0.11100
H3369       H  0.15473793  0.45245623  0.15700823     0.16500
H3370       H  0.19452441  0.42495594  0.15987318     0.12400
H3371       H  0.15866451  0.37024571  0.12252271     0.15300
H3372       H  0.11910951  0.39808885  0.12046129     0.15000
C3373       C  0.13441580  0.58435438  0.14114133    -0.17800
C3374       C  0.14089564  0.57219175  0.14865924    -0.20000
C3375       C  0.15611258  0.57244481  0.15263941     0.20600
C3376       C  0.16489044  0.58509042  0.14908634    -0.02900
C3377       C  0.15838101  0.59731898  0.14135060    -0.06000
C3378       C  0.14306171  0.59693901  0.13741486     0.20900
C3379       C  0.16721644  0.60984291  0.13744368     0.19100
C3380       C  0.18239996  0.61013282  0.14158526    -0.17500
C3381       C  0.18881902  0.59806217  0.14937601    -0.19700
C3382       C  0.18020062  0.58543802  0.15308826     0.20600
C3383       C  0.18668538  0.57302219  0.16040084    -0.32700
C3384       C  0.17810105  0.56017573  0.16352106     0.01300
C3385       C  0.16274925  0.56013720  0.15984807    -0.24100
C3386       C  0.13665876  0.60910651  0.12975585    -0.28600
C3387       C  0.14540785  0.62153116  0.12564503     0.06900
C3388       C  0.16070806  0.62180799  0.12944310    -0.27300
H3389       H  0.12265235  0.58387805  0.13815827     0.11600
H3390       H  0.13401490  0.56254375  0.15129510     0.12800
H3391       H  0.18933505  0.61967959  0.13874769     0.11900
H3392       H  0.20058283  0.59853419  0.15235667     0.11100
H3393       H  0.19852224  0.57314795  0.16311962     0.16500
H3394       H  0.15593880  0.55042940  0.16243125     0.12400
H3395       H  0.12489582  0.60877993  0.12672338     0.15300
H3396       H  0.16745681  0.63142916  0.12638559     0.15000
C3397       C  0.31001177  0.51002749  0.24950048    -0.17800
C3398       C  0.29928207  0.51056108  0.23809241    -0.20000
C3399       C  0.28602229  0.50220390  0.23925342     0.20600
C3400       C  0.28370184  0.49297421  0.25189510    -0.02900
C3401       C  0.29439872  0.49262347  0.26349617    -0.06000
C3402       C  0.30757750  0.50125069  0.26232140     0.20900
C3403       C  0.29176104  0.48384974  0.27638696     0.19100
C3404       C  0.27873489  0.47514090  0.27735916    -0.17500
C3405       C  0.26824579  0.47530667  0.26576460    -0.19700
C3406       C  0.27055952  0.48428999  0.25308421     0.20600
C3407       C  0.25983208  0.48491887  0.24169106    -0.32700
C3408       C  0.26184188  0.49442267  0.22931878     0.01300
C3409       C  0.27495182  0.50302867  0.22811874    -0.24100
C3410       C  0.31792558  0.50117138  0.27412118    -0.28600
C3411       C  0.31509558  0.49283263  0.28719440     0.06900
C3412       C  0.30207069  0.48410322  0.28818437    -0.27300
H3413       H  0.32010571  0.51667078  0.24840522     0.11600
H3414       H  0.30130124  0.51760228  0.22841504     0.12800
H3415       H  0.27659969  0.46828901  0.28714549     0.11900
H3416       H  0.25821089  0.46856752  0.26681159     0.11100
H3417       H  0.24966836  0.47835229  0.24267622     0.16500
H3418       H  0.27655752  0.51024384  0.21848143     0.12400
H3419       H  0.32793417  0.50798412  0.27331251     0.15300
H3420       H  0.29997045  0.47746824  0.29812953     0.15000
loop_ 
_geom_bond_atom_site_label_1 
_geom_bond_atom_site_label_2 
_geom_bond_distance 
_geom_bond_site_symmetry_2 
_ccdc_geom_bond_type 
N1            N2   1.319       .  A
N1            C5   1.350       .  A
N1           Cu9   2.091       .  S
N2            C3   1.339       .  A
N2           Cu8   2.047       .  S
C3            C4   1.382       .  A
C3            H6   1.082       .  S
C4            C5   1.393       .  A
C4         C3384   1.484       .  S
C5            H7   1.082       .  S
Cu8          N11   2.047       .  S
Cu9          N19   2.093       .  S
Cu10         N12   2.065       .  S
Cu10         N18   2.068       .  S
N11          N12   1.318       .  A
N11          C15   1.336       .  A
N12          C13   1.348       .  A
C13          C14   1.388       .  A
C13          H16   1.082       .  S
C14          C15   1.381       .  A
C14        C3360   1.474       .  S
C15          H17   1.082       .  S
N18          N19   1.326       .  A
N18          C22   1.342       .  A
N19          C20   1.347       .  A
C20          C21   1.385       .  A
C20          H23   1.082       .  S
C21          C22   1.379       .  A
C21        C3408   1.473       .  S
C22          H24   1.082       .  S
N25          N26   1.321       .  A
N25          C29   1.348       .  A
N25         Cu33   2.081       .  S
N26          C27   1.341       .  A
N26         Cu32   2.060       .  S
C27          C28   1.383       .  A
C27          H30   1.082       .  S
C28          C29   1.388       .  A
C28        C3288   1.478       .  S
C29          H31   1.082       .  S
Cu32         N35   2.060       .  S
Cu33         N43   2.082       .  S
Cu34         N36   2.060       .  S
Cu34         N42   2.061       .  S
N35          N36   1.321       .  A
N35          C39   1.341       .  A
N36          C37   1.343       .  A
C37          C38   1.382       .  A
C37          H40   1.082       .  S
C38          C39   1.382       .  A
C38        C3312   1.469       .  S
C39          H41   1.082       .  S
N42          N43   1.323       .  A
N42          C46   1.344       .  A
N43          C44   1.345       .  A
C44          C45   1.384       .  A
C44          H47   1.082       .  S
C45          C46   1.381       .  A
C45        C3336   1.474       .  S
C46          H48   1.082       .  S
N49          N50   1.320       .  A
N49          C53   1.344       .  A
N49         Cu57   2.062       .  S
N50          C51   1.343       .  A
N50         Cu56   2.066       .  S
C51          C52   1.385       .  A
C51          H54   1.082       .  S
C52          C53   1.384       .  A
C52        C3219   1.476       .  S
C53          H55   1.082       .  S
Cu56         N59   2.066       .  S
Cu57         N67   2.063       .  S
Cu58         N60   2.080       .  S
Cu58         N66   2.080       .  S
N59          N60   1.322       .  A
N59          C63   1.340       .  A
N60          C61   1.349       .  A
C61          C62   1.387       .  A
C61          H64   1.082       .  S
C62          C63   1.382       .  A
C62        C3240   1.478       .  S
C63          H65   1.083       .  S
N66          N67   1.323       .  A
N66          C70   1.345       .  A
N67          C68   1.343       .  A
C68          C69   1.381       .  A
C68          H71   1.082       .  S
C69          C70   1.386       .  A
C69        C3264   1.476       .  S
C70          H72   1.082       .  S
N73          N74   1.320       .  A
N73          C77   1.349       .  A
N73         Cu81   2.086       .  S
N74          C75   1.342       .  A
N74         Cu80   2.064       .  S
C75          C76   1.384       .  A
C75          H78   1.082       .  S
C76          C77   1.391       .  A
C76        C3171   1.484       .  S
C77          H79   1.082       .  S
Cu80         N83   2.064       .  S
Cu81         N91   2.087       .  S
Cu82         N84   2.076       .  S
Cu82         N90   2.077       .  S
N83          N84   1.322       .  A
N83          C87   1.341       .  A
N84          C85   1.348       .  A
C85          C86   1.385       .  A
C85          H88   1.082       .  S
C86          C87   1.380       .  A
C86        C3147   1.473       .  S
C87          H89   1.082       .  S
N90          N91   1.324       .  A
N90          C94   1.346       .  A
N91          C92   1.345       .  A
C92          C93   1.386       .  A
C92          H95   1.082       .  S
C93          C94   1.385       .  A
C93        C3195   1.482       .  S
C94          H96   1.082       .  S
N97          N98   1.322       .  A
N97         C101   1.347       .  A
N97        Cu105   2.071       .  S
N98          C99   1.346       .  A
N98        Cu104   2.084       .  S
C99         C100   1.384       .  A
C99         H102   1.082       .  S
C100        C101   1.382       .  A
C100       C3075   1.473       .  S
C101        H103   1.082       .  S
Cu104       N107   2.084       .  S
Cu105       N115   2.072       .  S
Cu106       N108   2.089       .  S
Cu106       N114   2.090       .  S
N107        N108   1.323       .  A
N107        C111   1.345       .  A
N108        C109   1.351       .  A
C109        C110   1.386       .  A
C109        H112   1.082       .  S
C110        C111   1.383       .  A
C110       C3096   1.479       .  S
C111        H113   1.082       .  S
N114        N115   1.323       .  A
N114        C118   1.346       .  A
N115        C116   1.346       .  A
C116        C117   1.382       .  A
C116        H119   1.082       .  S
C117        C118   1.386       .  A
C117       C3120   1.478       .  S
C118        H120   1.082       .  S
N121        N122   1.322       .  A
N121        C125   1.344       .  A
N121       Cu129   2.078       .  S
N122        C123   1.345       .  A
N122       Cu128   2.070       .  S
C123        C124   1.384       .  A
C123        H126   1.082       .  S
C124        C125   1.386       .  A
C124       C3003   1.479       .  S
C125        H127   1.082       .  S
Cu128       N131   2.069       .  S
Cu129       N139   2.077       .  S
Cu130       N132   2.045       .  S
Cu130       N138   2.045       .  S
N131        N132   1.320       .  A
N131        C135   1.342       .  A
N132        C133   1.341       .  A
C133        C134   1.381       .  A
C133        H136   1.082       .  S
C134        C135   1.385       .  A
C134       C3024   1.471       .  S
C135        H137   1.082       .  S
N138        N139   1.321       .  A
N138        C142   1.340       .  A
N139        C140   1.346       .  A
C140        C141   1.384       .  A
C140        H143   1.082       .  S
C141        C142   1.377       .  A
C141       C3048   1.466       .  S
C142        H144   1.082       .  S
N145        N146   1.321       .  A
N145        C149   1.348       .  A
N145       Cu153   2.078       .  S
N146        C147   1.342       .  A
N146       Cu152   2.063       .  S
C147        C148   1.383       .  A
C147        H150   1.082       .  S
C148        C149   1.386       .  A
C148       C2952   1.477       .  S
C149        H151   1.082       .  S
Cu152       N155   2.063       .  S
Cu153       N163   2.080       .  S
Cu154       N156   2.099       .  S
Cu154       N162   2.100       .  S
N155        N156   1.322       .  A
N155        C159   1.341       .  A
N156        C157   1.352       .  A
C157        C158   1.391       .  A
C157        H160   1.082       .  S
C158        C159   1.382       .  A
C158       C2928   1.484       .  S
C159        H161   1.082       .  S
N162        N163   1.325       .  A
N162        C166   1.348       .  A
N163        C164   1.346       .  A
C164        C165   1.383       .  A
C164        H167   1.082       .  S
C165        C166   1.387       .  A
C165       C2976   1.481       .  S
C166        H168   1.082       .  S
N169        N170   1.320       .  A
N169        C173   1.346       .  A
N169       Cu177   2.073       .  S
N170        C171   1.343       .  A
N170       Cu176   2.069       .  S
C171        C172   1.386       .  A
C171        H174   1.082       .  S
C172        C173   1.387       .  A
C172       C2856   1.482       .  S
C173        H175   1.082       .  S
Cu176       N179   2.068       .  S
Cu177       N187   2.073       .  S
Cu178       N180   2.068       .  S
Cu178       N186   2.069       .  S
N179        N180   1.322       .  A
N179        C183   1.341       .  A
N180        C181   1.347       .  A
C181        C182   1.383       .  A
C181        H184   1.082       .  S
C182        C183   1.380       .  A
C182       C2883   1.469       .  S
C183        H185   1.082       .  S
N186        N187   1.323       .  A
N186        C190   1.343       .  A
N187        C188   1.344       .  A
C188        C189   1.383       .  A
C188        H191   1.082       .  S
C189        C190   1.382       .  A
C189       C2907   1.474       .  S
C190        H192   1.082       .  S
O193       Cu201   2.042       .  S
O193        C203   1.281       .  A
O194       Cu201   2.049       .  S
O194        C204   1.282       .  A
O195       Cu201   2.036       .  S
O195        C205   1.280       .  A
O196       Cu201   2.038       .  S
O196        C206   1.280       .  A
O197       Cu202   1.970       .  S
O197        C206   1.274       .  A
O198       Cu202   1.978       .  S
O198        C205   1.275       .  A
O199       Cu202   1.974       .  S
O199        C204   1.273       .  A
O200       Cu202   1.971       .  S
O200        C203   1.273       .  A
Cu201      Cu202   2.374       .  S
C203        C434   1.468       .  S
C204        C544   1.472       .  S
C205        C496   1.469       .  S
C206        C352   1.467       .  S
O207       Cu215   2.045       .  S
O207        C217   1.281       .  A
O208       Cu215   2.055       .  S
O208        C218   1.283       .  A
O209       Cu215   2.028       .  S
O209        C219   1.279       .  A
O210       Cu215   2.033       .  S
O210        C220   1.279       .  A
O211       Cu216   1.972       .  S
O211        C220   1.275       .  A
O212       Cu216   1.975       .  S
O212        C219   1.274       .  A
O213       Cu216   1.980       .  S
O213        C218   1.274       .  A
O214       Cu216   1.977       .  S
O214        C217   1.274       .  A
Cu215      Cu216   2.374       .  S
C217        C400   1.471       .  S
C218        C520   1.477       .  S
C219        C328   1.463       .  S
C220        C472   1.466       .  S
O221       Cu229   1.975       .  S
O221        C231   1.273       .  A
O222       Cu229   1.978       .  S
O222        C232   1.274       .  A
O223       Cu229   1.973       .  S
O223        C233   1.274       .  A
O224       Cu229   1.970       .  S
O224        C234   1.274       .  A
O225       Cu230   2.045       .  S
O225        C234   1.281       .  A
O226       Cu230   2.037       .  S
O226        C233   1.280       .  A
O227       Cu230   2.044       .  S
O227        C232   1.281       .  A
O228       Cu230   2.047       .  S
O228        C231   1.282       .  A
Cu229      Cu230   2.374       .  S
C231        C280   1.470       .  S
C232        C448   1.472       .  S
C233        C530   1.468       .  S
C234        C554   1.470       .  S
O235       Cu243   1.973       .  S
O235        C245   1.274       .  A
O236       Cu243   1.971       .  S
O236        C246   1.274       .  A
O237       Cu243   1.994       .  S
O237        C247   1.277       .  A
O238       Cu243   1.990       .  S
O238        C248   1.276       .  A
O239       Cu244   2.048       .  S
O239        C248   1.281       .  A
O240       Cu244   2.038       .  S
O240        C247   1.280       .  A
O241       Cu244   2.040       .  S
O241        C246   1.281       .  A
O242       Cu244   2.033       .  S
O242        C245   1.279       .  A
Cu243      Cu244   2.374       .  S
C245        C482   1.465       .  S
C246        C506   1.468       .  S
C247        C376   1.474       .  S
C248        C458   1.477       .  S
O249       Cu257   2.036       .  S
O249        C259   1.280       .  A
O250       Cu257   2.032       .  S
O250        C260   1.279       .  A
O251       Cu257   2.047       .  S
O251        C261   1.283       .  A
O252       Cu257   2.049       .  S
O252        C262   1.281       .  A
O253       Cu258   1.974       .  S
O253        C262   1.274       .  A
O254       Cu258   1.976       .  S
O254        C261   1.273       .  A
O255       Cu258   1.983       .  S
O255        C260   1.275       .  A
O256       Cu258   1.979       .  S
O256        C259   1.275       .  A
Cu257      Cu258   2.373       .  S
C259        C424   1.469       .  S
C260        C410   1.469       .  S
C261        C304   1.472       .  S
C262        C386   1.472       .  S
O263       Cu271   1.985       .  S
O263        C273   1.276       .  A
O264       Cu271   1.984       .  S
O264        C274   1.276       .  A
O265       Cu271   1.961       .  S
O265        C275   1.271       .  A
O266       Cu271   1.963       .  S
O266        C276   1.271       .  A
O267       Cu272   2.059       .  S
O267        C276   1.284       .  A
O268       Cu272   2.049       .  S
O268        C275   1.282       .  A
O269       Cu272   2.042       .  S
O269        C274   1.280       .  A
O270       Cu272   2.036       .  S
O270        C273   1.279       .  A
Cu271      Cu272   2.373       .  S
C273        C338   1.471       .  S
C274        C362   1.474       .  S
C275        C290   1.468       .  S
C276        C314   1.472       .  S
N277        N278   1.321       .  A
N277        C281   1.352       .  A
N277       Cu285   2.082       .  S
N278        C279   1.338       .  A
N278       Cu284   2.059       .  S
C279        C280   1.380       .  A
C279        H282   1.082       .  S
C280        C281   1.388       .  A
C281        H283   1.082       .  S
Cu284       N287   2.059       .  S
Cu285       N295   2.085       .  S
Cu286       N288   2.066       .  S
Cu286       N294   2.070       .  S
N287        N288   1.319       .  A
N287        C291   1.336       .  A
N288        C289   1.352       .  A
C289        C290   1.387       .  A
C289        H292   1.082       .  S
C290        C291   1.381       .  A
C291        H293   1.082       .  S
N294        N295   1.327       .  A
N294        C298   1.340       .  A
N295        C296   1.348       .  A
C296        C297   1.382       .  A
C296        H299   1.082       .  S
C297        C298   1.377       .  A
C297       C3267   1.466       .  S
C298        H300   1.082       .  S
N301        N302   1.321       .  A
N301        C305   1.351       .  A
N301       Cu309   2.072       .  S
N302        C303   1.341       .  A
N302       Cu308   2.076       .  S
C303        C304   1.384       .  A
C303        H306   1.082       .  S
C304        C305   1.386       .  A
C305        H307   1.082       .  S
Cu308       N311   2.076       .  S
Cu309       N319   2.075       .  S
Cu310       N312   2.067       .  S
Cu310       N318   2.070       .  S
N311        N312   1.320       .  A
N311        C315   1.338       .  A
N312        C313   1.352       .  A
C313        C314   1.386       .  A
C313        H316   1.082       .  S
C314        C315   1.384       .  A
C315        H317   1.082       .  S
N318        N319   1.325       .  A
N318        C322   1.342       .  A
N319        C320   1.344       .  A
C320        C321   1.381       .  A
C320        H323   1.082       .  S
C321        C322   1.379       .  A
C321       C2904   1.468       .  S
C322        H324   1.082       .  S
N325        N326   1.317       .  A
N325        C329   1.349       .  A
N325       Cu333   2.063       .  S
N326        C327   1.336       .  A
N326       Cu332   2.041       .  S
C327        C328   1.379       .  A
C327        H330   1.082       .  S
C328        C329   1.387       .  A
C329        H331   1.082       .  S
Cu332       N335   2.040       .  S
Cu333       N343   2.067       .  S
Cu334       N336   2.094       .  S
Cu334       N342   2.098       .  S
N335        N336   1.320       .  A
N335        C339   1.334       .  A
N336        C337   1.355       .  A
C337        C338   1.393       .  A
C337        H340   1.082       .  S
C338        C339   1.375       .  A
C339        H341   1.082       .  S
N342        N343   1.327       .  A
N342        C346   1.346       .  A
N343        C344   1.341       .  A
C344        C345   1.378       .  A
C344        H347   1.082       .  S
C345        C346   1.386       .  A
C345       C3411   1.476       .  S
C346        H348   1.082       .  S
N349        N350   1.317       .  A
N349        C353   1.353       .  A
N349       Cu357   2.077       .  S
N350        C351   1.334       .  A
N350       Cu356   2.038       .  S
C351        C352   1.377       .  A
C351        H354   1.082       .  S
C352        C353   1.390       .  A
C353        H355   1.082       .  S
Cu356       N359   2.038       .  S
Cu357       N367   2.082       .  S
Cu358       N360   2.104       .  S
Cu358       N366   2.109       .  S
N359        N360   1.320       .  A
N359        C363   1.335       .  A
N360        C361   1.356       .  A
C361        C362   1.395       .  A
C361        H364   1.082       .  S
C362        C363   1.376       .  A
C363        H365   1.082       .  S
N366        N367   1.328       .  A
N366        C370   1.351       .  A
N367        C368   1.342       .  A
C368        C369   1.379       .  A
C368        H371   1.082       .  S
C369        C370   1.387       .  A
C369       C3123   1.479       .  S
C370        H372   1.082       .  S
N373        N374   1.321       .  A
N373        C377   1.354       .  A
N373       Cu381   2.097       .  S
N374        C375   1.338       .  A
N374       Cu380   2.054       .  S
C375        C376   1.378       .  A
C375        H378   1.082       .  S
C376        C377   1.392       .  A
C377        H379   1.082       .  S
Cu380       N383   2.053       .  S
Cu381       N391   2.100       .  S
Cu382       N384   2.076       .  S
Cu382       N390   2.080       .  S
N383        N384   1.318       .  A
N383        C387   1.336       .  A
N384        C385   1.354       .  A
C385        C386   1.390       .  A
C385        H388   1.082       .  S
C386        C387   1.381       .  A
C387        H389   1.082       .  S
N390        N391   1.328       .  A
N390        C394   1.341       .  A
N391        C392   1.350       .  A
C392        C393   1.386       .  A
C392        H395   1.082       .  S
C393        C394   1.380       .  A
C393       C2832   1.478       .  S
C394        H396   1.082       .  S
N397        N398   1.318       .  A
N397        C401   1.353       .  A
N397       Cu405   2.079       .  S
N398        C399   1.337       .  A
N398       Cu404   2.053       .  S
C399        C400   1.380       .  A
C399        H402   1.082       .  S
C400        C401   1.390       .  A
C401        H403   1.082       .  S
Cu404       N407   2.051       .  S
Cu405       N415   2.082       .  S
Cu406       N408   2.079       .  S
Cu406       N414   2.083       .  S
N407        N408   1.320       .  A
N407        C411   1.337       .  A
N408        C409   1.352       .  A
C409        C410   1.389       .  A
C409        H412   1.082       .  S
C410        C411   1.378       .  A
C411        H413   1.082       .  S
N414        N415   1.327       .  A
N414        C418   1.345       .  A
N415        C416   1.342       .  A
C416        C417   1.382       .  A
C416        H419   1.082       .  S
C417        C418   1.384       .  A
C417       C3051   1.478       .  S
C418        H420   1.082       .  S
N421        N422   1.319       .  A
N421        C425   1.351       .  A
N421       Cu429   2.077       .  S
N422        C423   1.338       .  A
N422       Cu428   2.055       .  S
C423        C424   1.380       .  A
C423        H426   1.082       .  S
C424        C425   1.388       .  A
C425        H427   1.082       .  S
Cu428       N431   2.056       .  S
Cu429       N439   2.079       .  S
Cu430       N432   2.082       .  S
Cu430       N438   2.086       .  S
N431        N432   1.321       .  A
N431        C435   1.337       .  A
N432        C433   1.352       .  A
C433        C434   1.387       .  A
C433        H436   1.082       .  S
C434        C435   1.379       .  A
C435        H437   1.082       .  S
N438        N439   1.326       .  A
N438        C442   1.348       .  A
N439        C440   1.342       .  A
C440        C441   1.379       .  A
C440        H443   1.082       .  S
C441        C442   1.383       .  A
C441       C2808   1.471       .  S
C442        H444   1.082       .  S
N445        N446   1.318       .  A
N445        C449   1.352       .  A
N445       Cu453   2.075       .  S
N446        C447   1.338       .  A
N446       Cu452   2.059       .  S
C447        C448   1.382       .  A
C447        H450   1.082       .  S
C448        C449   1.389       .  A
C449        H451   1.082       .  S
Cu452       N455   2.059       .  S
Cu453       N463   2.078       .  S
Cu454       N456   2.102       .  S
Cu454       N462   2.105       .  S
N455        N456   1.321       .  A
N455        C459   1.339       .  A
N456        C457   1.355       .  A
C457        C458   1.393       .  A
C457        H460   1.082       .  S
C458        C459   1.379       .  A
C459        H461   1.082       .  S
N462        N463   1.327       .  A
N462        C466   1.350       .  A
N463        C464   1.343       .  A
C464        C465   1.379       .  A
C464        H467   1.082       .  S
C465        C466   1.387       .  A
C465       C2784   1.478       .  S
C466        H468   1.082       .  S
N469        N470   1.318       .  A
N469        C473   1.354       .  A
N469       Cu477   2.091       .  S
N470        C471   1.332       .  A
N470       Cu476   2.029       .  S
C471        C472   1.374       .  A
C471        H474   1.082       .  S
C472        C473   1.393       .  A
C473        H475   1.082       .  S
Cu476       N479   2.030       .  S
Cu477       N487   2.097       .  S
Cu478       N480   2.077       .  S
Cu478       N486   2.083       .  S
N479        N480   1.317       .  A
N479        C483   1.334       .  A
N480        C481   1.352       .  A
C481        C482   1.390       .  A
C481        H484   1.082       .  S
C482        C483   1.376       .  A
C483        H485   1.082       .  S
N486        N487   1.328       .  A
N486        C490   1.343       .  A
N487        C488   1.347       .  A
C488        C489   1.386       .  A
C488        H491   1.082       .  S
C489        C490   1.382       .  A
C489       C2979   1.482       .  S
C490        H492   1.082       .  S
N493        N494   1.319       .  A
N493        C497   1.353       .  A
N493       Cu501   2.083       .  S
N494        C495   1.335       .  A
N494       Cu500   2.042       .  S
C495        C496   1.377       .  A
C495        H498   1.082       .  S
C496        C497   1.390       .  A
C497        H499   1.082       .  S
Cu500       N503   2.043       .  S
Cu501       N511   2.087       .  S
Cu502       N504   2.083       .  S
Cu502       N510   2.088       .  S
N503        N504   1.318       .  A
N503        C507   1.335       .  A
N504        C505   1.353       .  A
C505        C506   1.390       .  A
C505        H508   1.082       .  S
C506        C507   1.378       .  A
C507        H509   1.082       .  S
N510        N511   1.327       .  A
N510        C514   1.344       .  A
N511        C512   1.346       .  A
C512        C513   1.383       .  A
C512        H515   1.082       .  S
C513        C514   1.383       .  A
C513       C2760   1.479       .  S
C514        H516   1.082       .  S
N517        N518   1.319       .  A
N517        C521   1.355       .  A
N517       Cu525   2.094       .  S
N518        C519   1.337       .  A
N518       Cu524   2.051       .  S
C519        C520   1.380       .  A
C519        H522   1.082       .  S
C520        C521   1.393       .  A
C521        H523   1.082       .  S
Cu524       N527   2.050       .  S
Cu525       N535   2.098       .  S
Cu526       N528   2.078       .  S
Cu526       N534   2.083       .  S
N527        N528   1.319       .  A
N527        C531   1.335       .  A
N528        C529   1.353       .  A
C529        C530   1.389       .  A
C529        H532   1.082       .  S
C530        C531   1.378       .  A
C531        H533   1.082       .  S
N534        N535   1.328       .  A
N534        C538   1.345       .  A
N535        C536   1.346       .  A
C536        C537   1.384       .  A
C536        H539   1.082       .  S
C537        C538   1.382       .  A
C537       C3339   1.479       .  S
C538        H540   1.082       .  S
N541        N542   1.317       .  A
N541        C545   1.353       .  A
N541       Cu549   2.075       .  S
N542        C543   1.337       .  A
N542       Cu548   2.052       .  S
C543        C544   1.381       .  A
C543        H546   1.082       .  S
C544        C545   1.389       .  A
C545        H547   1.082       .  S
Cu548       N551   2.051       .  S
Cu549       N559   2.079       .  S
Cu550       N552   2.090       .  S
Cu550       N558   2.094       .  S
N551        N552   1.321       .  A
N551        C555   1.334       .  A
N552        C553   1.355       .  A
C553        C554   1.391       .  A
C553        H556   1.082       .  S
C554        C555   1.376       .  A
C555        H557   1.082       .  S
N558        N559   1.327       .  A
N558        C562   1.348       .  A
N559        C560   1.342       .  A
C560        C561   1.380       .  A
C560        H563   1.082       .  S
C561        C562   1.386       .  A
C561       C3192   1.478       .  S
C562        H564   1.082       .  S
N565        N566   1.320       .  A
N565        C569   1.344       .  A
N565       Cu573   2.065       .  S
N566        C567   1.343       .  A
N566       Cu572   2.064       .  S
C567        C568   1.383       .  A
C567        H570   1.082       .  S
C568        C569   1.384       .  A
C568       C2712   1.472       .  S
C569        H571   1.082       .  S
Cu572       N575   2.064       .  S
Cu573       N583   2.066       .  S
Cu574       N576   2.080       .  S
Cu574       N582   2.080       .  S
N575        N576   1.322       .  A
N575        C579   1.341       .  A
N576        C577   1.348       .  A
C577        C578   1.386       .  A
C577        H580   1.082       .  S
C578        C579   1.380       .  A
C578       C2736   1.474       .  S
C579        H581   1.082       .  S
N582        N583   1.323       .  A
N582        C586   1.345       .  A
N583        C584   1.343       .  A
C584        C585   1.382       .  A
C584        H587   1.082       .  S
C585        C586   1.386       .  A
C585       C2835   1.476       .  S
C586        H588   1.082       .  S
N589        N590   1.321       .  A
N589        C593   1.348       .  A
N589       Cu597   2.077       .  S
N590        C591   1.342       .  A
N590       Cu596   2.064       .  S
C591        C592   1.383       .  A
C591        H594   1.082       .  S
C592        C593   1.387       .  A
C592       C2688   1.478       .  S
C593        H595   1.082       .  S
Cu596       N599   2.064       .  S
Cu597       N607   2.077       .  S
Cu598       N600   2.081       .  S
Cu598       N606   2.082       .  S
N599        N600   1.321       .  A
N599        C603   1.343       .  A
N600        C601   1.347       .  A
C601        C602   1.387       .  A
C601        H604   1.082       .  S
C602        C603   1.383       .  A
C602       C2664   1.479       .  S
C603        H605   1.082       .  S
N606        N607   1.323       .  A
N606        C610   1.345       .  A
N607        C608   1.345       .  A
C608        C609   1.385       .  A
C608        H611   1.082       .  S
C609        C610   1.387       .  A
C609       C2811   1.482       .  S
C610        H612   1.082       .  S
N613        N614   1.322       .  A
N613        C617   1.344       .  A
N613       Cu621   2.073       .  S
N614        C615   1.342       .  A
N614       Cu620   2.069       .  S
C615        C616   1.385       .  A
C615        H618   1.081       .  S
C616        C617   1.387       .  A
C616       C2616   1.481       .  S
C617        H619   1.081       .  S
Cu620       N623   2.067       .  S
Cu621       N631   2.073       .  S
Cu622       N624   2.069       .  S
Cu622       N630   2.069       .  S
N623        N624   1.320       .  A
N623        C627   1.344       .  A
N624        C625   1.344       .  A
C625        C626   1.385       .  A
C625        H628   1.082       .  S
C626        C627   1.384       .  A
C626       C2640   1.477       .  S
C627        H629   1.082       .  S
N630        N631   1.322       .  A
N630        C634   1.342       .  A
N631        C632   1.347       .  A
C632        C633   1.385       .  A
C632        H635   1.082       .  S
C633        C634   1.383       .  A
C633       C2763   1.476       .  S
C634        H636   1.082       .  S
N637        N638   1.320       .  A
N637        C641   1.347       .  A
N637       Cu645   2.072       .  S
N638        C639   1.340       .  A
N638       Cu644   2.063       .  S
C639        C640   1.384       .  A
C639        H642   1.081       .  S
C640        C641   1.388       .  A
C640       C2571   1.481       .  S
C641        H643   1.082       .  S
Cu644       N647   2.063       .  S
Cu645       N655   2.073       .  S
Cu646       N648   2.089       .  S
Cu646       N654   2.091       .  S
N647        N648   1.321       .  A
N647        C651   1.343       .  A
N648        C649   1.349       .  A
C649        C650   1.390       .  A
C649        H652   1.082       .  S
C650        C651   1.383       .  A
C650       C2592   1.482       .  S
C651        H653   1.082       .  S
N654        N655   1.324       .  A
N654        C658   1.346       .  A
N655        C656   1.345       .  A
C656        C657   1.383       .  A
C656        H659   1.082       .  S
C657        C658   1.387       .  A
C657       C2787   1.480       .  S
C658        H660   1.082       .  S
O661       Cu669   2.005       .  S
O661        C671   1.278       .  A
O662       Cu669   2.004       .  S
O662        C672   1.278       .  A
O663       Cu669   2.008       .  S
O663        C673   1.278       .  A
O664       Cu669   2.007       .  S
O664        C674   1.279       .  A
O665       Cu670   2.009       .  S
O665        C674   1.278       .  A
O666       Cu670   2.010       .  S
O666        C673   1.278       .  A
O667       Cu670   2.017       .  S
O667        C672   1.280       .  A
O668       Cu670   2.019       .  S
O668        C671   1.279       .  A
Cu669      Cu670   2.369       .  S
C671       C2544   1.485       .  S
C672       C2496   1.484       .  S
C673       C2523   1.481       .  S
C674       C2472   1.483       .  S
N675        N676   1.323       .  A
N675        C679   1.348       .  A
N675       Cu683   2.094       .  S
N676        C677   1.343       .  A
N676       Cu682   2.077       .  S
C677        C678   1.388       .  A
C677        H680   1.080       .  S
C678        C679   1.392       .  A
C678       C2499   1.493       .  S
C679        H681   1.081       .  S
Cu682       N685   2.076       .  S
Cu683       N693   2.093       .  S
Cu684       N686   2.068       .  S
Cu684       N692   2.069       .  S
N685        N686   1.320       .  A
N685        C689   1.346       .  A
N686        C687   1.344       .  A
C687        C688   1.387       .  A
C687        H690   1.081       .  S
C688        C689   1.389       .  A
C688       C2448   1.485       .  S
C689        H691   1.081       .  S
N692        N693   1.323       .  A
N692        C696   1.342       .  A
N693        C694   1.350       .  A
C694        C695   1.389       .  A
C694        H697   1.082       .  S
C695        C696   1.382       .  A
C695       C2691   1.481       .  S
C696        H698   1.082       .  S
O699       Cu707   2.006   1_565  S
O699        C709   1.278       .  A
O700       Cu707   2.006       .  S
O700        C710   1.278       .  A
O701       Cu707   1.986   1_565  S
O701        C711   1.276       .  A
O702       Cu707   1.985       .  S
O702        C712   1.277       .  A
O703       Cu708   2.012       .  S
O703        C712   1.278       .  A
O704       Cu708   2.006   1_565  S
O704        C711   1.278       .  A
O705       Cu708   2.003       .  S
O705        C710   1.278       .  A
O706       Cu708   2.012   1_565  S
O706        C709   1.279       .  A
Cu707      Cu708   2.372       .  S
C709       C2451   1.481       .  S
C710       C2400   1.479       .  S
C711       C2376   1.473       .  S
C712       C2427   1.475       .  S
N713        N714   1.318       .  A
N713        C717   1.339       .  A
N713       Cu721   2.052       .  S
N714        C715   1.346       .  A
N714       Cu720   2.067       .  S
C715        C716   1.389       .  A
C715        H718   1.081       .  S
C716        C717   1.384       .  A
C716       C2352   1.480       .  S
C717        H719   1.081       .  S
Cu720       N723   2.068       .  S
Cu721       N731   2.053       .  S
Cu722       N724   2.091       .  S
Cu722       N730   2.090       .  S
N723        N724   1.322       .  A
N723        C727   1.340       .  A
N724        C725   1.349       .  A
C725        C726   1.392       .  A
C725        H728   1.081       .  S
C726        C727   1.386       .  A
C726       C2475   1.491       .  S
C727        H729   1.080       .  S
N730        N731   1.322       .  A
N730        C734   1.348       .  A
N731        C732   1.341       .  A
C732        C733   1.380       .  A
C732        H735   1.082       .  S
C733        C734   1.389       .  A
C733       C2643   1.478       .  S
C734        H736   1.082       .  S
O737       Cu745   2.006       .  S
O737        C747   1.278       .  A
O738       Cu745   2.009       .  S
O738        C748   1.278       .  A
O739       Cu745   2.003       .  S
O739        C749   1.278       .  A
O740       Cu745   1.997       .  S
O740        C750   1.277       .  A
O741       Cu746   1.996       .  S
O741        C750   1.277       .  A
O742       Cu746   1.994       .  S
O742        C749   1.277       .  A
O743       Cu746   2.024       .  S
O743        C748   1.281       .  A
O744       Cu746   2.017       .  S
O744        C747   1.279       .  A
Cu745      Cu746   2.371       .  S
C747       C2280   1.483       .  S
C748       C2304   1.488       .  S
C749       C2355   1.472       .  S
C750       C2328   1.474       .  S
N751        N752   1.319       .  A
N751        C755   1.343       .  A
N751       Cu759   2.073       .  S
N752        C753   1.341       .  A
N752       Cu758   2.052       .  S
C753        C754   1.385       .  A
C753        H756   1.081       .  S
C754        C755   1.389       .  A
C754       C2379   1.481       .  S
C755        H757   1.081       .  S
Cu758       N761   2.053       .  S
Cu759       N769   2.074       .  S
Cu760       N762   2.083       .  S
Cu760       N768   2.083       .  S
N761        N762   1.320       .  A
N761        C765   1.341       .  A
N762        C763   1.345       .  A
C763        C764   1.392       .  A
C763        H766   1.081       .  S
C764        C765   1.385       .  A
C764       C2283   1.486       .  S
C765        H767   1.081       .  S
N768        N769   1.322       .  A
N768        C772   1.347       .  A
N769        C770   1.344       .  A
C770        C771   1.385       .  A
C770        H773   1.082       .  S
C771        C772   1.388       .  A
C771       C2739   1.483       .  S
C772        H774   1.082       .  S
O775       Cu783   2.006       .  S
O775        C785   1.277       .  A
O776       Cu783   1.997       .  S
O776        C786   1.277       .  A
O777       Cu783   2.023       .  S
O777        C787   1.280       .  A
O778       Cu783   2.020       .  S
O778        C788   1.280       .  A
O779       Cu784   2.006       .  S
O779        C788   1.277       .  A
O780       Cu784   2.003       .  S
O780        C787   1.278       .  A
O781       Cu784   2.017       .  S
O781        C786   1.279       .  A
O782       Cu784   2.018       .  S
O782        C785   1.280       .  A
Cu783      Cu784   2.369       .  S
C785       C2208   1.485       .  S
C786       C2232   1.481       .  S
C787       C2256   1.485       .  S
C788       C2184   1.484       .  S
N789        N790   1.323       .  A
N789        C793   1.348       .  A
N789       Cu797   2.096       .  S
N790        C791   1.345       .  A
N790       Cu796   2.083       .  S
C791        C792   1.389       .  A
C791        H794   1.081       .  S
C792        C793   1.393       .  A
C792       C2307   1.496       .  S
C793        H795   1.081       .  S
Cu796       N799   2.082       .  S
Cu797       N807   2.096       .  S
Cu798       N800   2.069       .  S
Cu798       N806   2.070       .  S
N799        N800   1.320       .  A
N799        C803   1.347       .  A
N800        C801   1.343       .  A
C801        C802   1.388       .  A
C801        H804   1.081       .  S
C802        C803   1.391       .  A
C802       C2187   1.489       .  S
C803        H805   1.081       .  S
N806        N807   1.322       .  A
N806        C810   1.344       .  A
N807        C808   1.349       .  A
C808        C809   1.393       .  A
C808        H811   1.081       .  S
C809        C810   1.386       .  A
C809       C3099   1.491       .  S
C810        H812   1.081       .  S
N813        N814   1.322       .  A
N813        C817   1.349       .  A
N813       Cu821   2.090       .  S
N814        C815   1.343       .  A
N814       Cu820   2.074       .  S
C815        C816   1.387       .  A
C815        H818   1.081       .  S
C816        C817   1.391       .  A
C816       C2211   1.490       .  S
C817        H819   1.081       .  S
Cu820       N823   2.073       .  S
Cu821       N831   2.090       .  S
Cu822       N824   2.069       .  S
Cu822       N830   2.070       .  S
N823        N824   1.320       .  A
N823        C827   1.344       .  A
N824        C825   1.344       .  A
C825        C826   1.389       .  A
C825        H828   1.081       .  S
C826        C827   1.390       .  A
C826       C2163   1.488       .  S
C827        H829   1.081       .  S
N830        N831   1.323       .  A
N830        C834   1.343       .  A
N831        C832   1.348       .  A
C832        C833   1.387       .  A
C832        H835   1.082       .  S
C833        C834   1.383       .  A
C833       C3387   1.479       .  S
C834        H836   1.082       .  S
O837       Cu845   1.995       .  S
O837        C847   1.277       .  A
O838       Cu845   2.001       .  S
O838        C848   1.278       .  A
O839       Cu845   2.009       .  S
O839        C849   1.278       .  A
O840       Cu845   2.012       .  S
O840        C850   1.278       .  A
O841       Cu846   2.007       .  S
O841        C850   1.279       .  A
O842       Cu846   2.007       .  S
O842        C849   1.279       .  A
O843       Cu846   2.004       .  S
O843        C848   1.277       .  A
O844       Cu846   2.001       .  S
O844        C847   1.278       .  A
Cu845      Cu846   2.371       .  S
C847       C2112   1.474       .  S
C848       C2160   1.479       .  S
C849       C2091   1.481       .  S
C850       C2136   1.482   1_655  S
N851        N852   1.322       .  A
N851        C855   1.346       .  A
N851       Cu859   2.080       .  S
N852        C853   1.344       .  A
N852       Cu858   2.080       .  S
C853        C854   1.389       .  A
C853        H856   1.081       .  S
C854        C855   1.389       .  A
C854       C2547   1.490       .  S
C855        H857   1.081       .  S
Cu858       N861   2.079       .  S
Cu859       N869   2.079       .  S
Cu860       N862   2.070       .  S
Cu860       N868   2.070       .  S
N861        N862   1.321       .  A
N861        C865   1.348       .  A
N862        C863   1.342       .  A
C863        C864   1.386       .  A
C863        H866   1.081       .  S
C864        C865   1.390       .  A
C864       C2088   1.486       .  S
C865        H867   1.082       .  S
N868        N869   1.322       .  A
N868        C872   1.345       .  A
N869        C870   1.346       .  A
C870        C871   1.386       .  A
C870        H873   1.082       .  S
C871        C872   1.383       .  A
C871       C2955   1.477       .  S
C872        H874   1.082       .  S
N875        N876   1.319       .  A
N875        C879   1.341       .  A
N875       Cu883   2.062       .  S
N876        C877   1.343       .  A
N876       Cu882   2.059       .  S
C877        C878   1.387       .  A
C877        H880   1.081       .  S
C878        C879   1.387       .  A
C878       C2115   1.481       .  S
C879        H881   1.081       .  S
Cu882       N885   2.059       .  S
Cu883       N893   2.063       .  S
Cu884       N886   2.077       .  S
Cu884       N892   2.077       .  S
N885        N886   1.321       .  A
N885        C889   1.341       .  A
N886        C887   1.346       .  A
C887        C888   1.387       .  A
C887        H890   1.082       .  S
C888        C889   1.383       .  A
C888       C2064   1.479       .  S
C889        H891   1.082       .  S
N892        N893   1.322       .  A
N892        C896   1.345       .  A
N893        C894   1.343       .  A
C894        C895   1.382       .  A
C894        H897   1.082       .  S
C895        C896   1.385       .  A
C895       C2715   1.475       .  S
C896        H898   1.082       .  S
O899       Cu907   2.006       .  S
O899        C909   1.278       .  A
O900       Cu907   2.006   1_565  S
O900        C910   1.278       .  A
O901       Cu907   2.000       .  S
O901        C911   1.278       .  A
O902       Cu907   2.001   1_565  S
O902        C912   1.278       .  A
O903       Cu908   2.015   1_565  S
O903        C912   1.279       .  A
O904       Cu908   2.015       .  S
O904        C911   1.279       .  A
O905       Cu908   2.010   1_565  S
O905        C910   1.279       .  A
O906       Cu908   2.013       .  S
O906        C909   1.279       .  A
Cu907      Cu908   2.370       .  S
C909       C2019   1.482       .  S
C910       C2067   1.480       .  S
C911       C2040   1.482       .  S
C912       C1992   1.482       .  S
N913        N914   1.321       .  A
N913        C917   1.346       .  A
N913       Cu921   2.076       .  S
N914        C915   1.340       .  A
N914       Cu920   2.068       .  S
C915        C916   1.387       .  A
C915        H918   1.081       .  S
C916        C917   1.390       .  A
C916       C2520   1.487       .  S
C917        H919   1.081       .  S
Cu920       N923   2.067       .  S
Cu921       N931   2.075       .  S
Cu922       N924   2.055       .  S
Cu922       N930   2.055       .  S
N923        N924   1.318       .  A
N923        C927   1.345       .  A
N924        C925   1.339       .  A
C925        C926   1.387       .  A
C925        H928   1.080       .  S
C926        C927   1.390       .  A
C926       C1995   1.485       .  S
C927        H929   1.081       .  S
N930        N931   1.322       .  A
N930        C934   1.342       .  A
N931        C932   1.344       .  A
C932        C933   1.384       .  A
C932        H935   1.082       .  S
C933        C934   1.380       .  A
C933       C3027   1.469       .  S
C934        H936   1.082       .  S
N937        N938   1.319       .  A
N937        C941   1.344       .  A
N937       Cu945   2.063       .  S
N938        C939   1.343       .  A
N938       Cu944   2.069       .  S
C939        C940   1.388       .  A
C939        H942   1.081       .  S
C940        C941   1.388       .  A
C940       C2016   1.485       .  S
C941        H943   1.081       .  S
Cu944       N947   2.069       .  S
Cu945       N955   2.063       .  S
Cu946       N948   2.063       .  S
Cu946       N954   2.063       .  S
N947        N948   1.321       .  A
N947        C951   1.342       .  A
N948        C949   1.344       .  A
C949        C950   1.386       .  A
C949        H952   1.082       .  S
C950        C951   1.386       .  A
C950       C1971   1.479       .  S
C951        H953   1.081       .  S
N954        N955   1.322       .  A
N954        C958   1.344       .  A
N955        C956   1.340       .  A
C956        C957   1.383       .  A
C956        H959   1.082       .  S
C957        C958   1.384       .  A
C957       C3315   1.473       .  S
C958        H960   1.082       .  S
O961       Cu969   2.006       .  S
O961        C971   1.279       .  A
O962       Cu969   2.006       .  S
O962        C972   1.279       .  A
O963       Cu969   1.999       .  S
O963        C973   1.277       .  A
O964       Cu969   2.001       .  S
O964        C974   1.277       .  A
O965       Cu970   2.027       .  S
O965        C974   1.281       .  A
O966       Cu970   2.021       .  S
O966        C973   1.280       .  A
O967       Cu970   1.995       .  S
O967        C972   1.276       .  A
O968       Cu970   1.997       .  S
O968        C971   1.277       .  A
Cu969      Cu970   2.370       .  S
C971       C1920   1.477       .  S
C972       C1968   1.476       .  S
C973       C1896   1.483       .  S
C974       C1944   1.486       .  S
N975        N976   1.320       .  A
N975        C979   1.344       .  A
N975       Cu983   2.071       .  S
N976        C977   1.343       .  A
N976       Cu982   2.060       .  S
C977        C978   1.386       .  A
C977        H980   1.081       .  S
C978        C979   1.387       .  A
C978       C1899   1.482       .  S
C979        H981   1.081       .  S
Cu982       N985   2.060       .  S
Cu983       N993   2.071       .  S
Cu984       N986   2.082       .  S
Cu984       N992   2.081       .  S
N985        N986   1.321       .  A
N985        C989   1.344       .  A
N986        C987   1.342       .  A
C987        C988   1.390       .  A
C987        H990   1.081       .  S
C988        C989   1.385       .  A
C988       C2424   1.483       .  S
C989        H991   1.081       .  S
N992        N993   1.322       .  A
N992        C996   1.347       .  A
N993        C994   1.344       .  A
C994        C995   1.384       .  A
C994        H997   1.082       .  S
C995        C996   1.387       .  A
C995       C3168   1.479       .  S
C996        H998   1.082       .  S
N999       N1000   1.322       .  A
N999       C1003   1.347       .  A
N999      Cu1007   2.080       .  S
N1000      C1001   1.339       .  A
N1000     Cu1006   2.063       .  S
C1001      C1002   1.384       .  A
C1001      H1004   1.081       .  S
C1002      C1003   1.389       .  A
C1002      C1923   1.483       .  S
C1003      H1005   1.081       .  S
Cu1006     N1009   2.062       .  S
Cu1007     N1017   2.079       .  S
Cu1008     N1010   2.058       .  S
Cu1008     N1016   2.058       .  S
N1009      N1010   1.317       .  A
N1009      C1013   1.344       .  A
N1010      C1011   1.341       .  A
C1011      C1012   1.389       .  A
C1011      H1014   1.080       .  S
C1012      C1013   1.391       .  A
C1012      C1872   1.487       .  S
C1013      H1015   1.081       .  S
N1016      N1017   1.322       .  A
N1016      C1020   1.339       .  A
N1017      C1018   1.348       .  A
C1018      C1019   1.387       .  A
C1018      H1021   1.082       .  S
C1019      C1020   1.380       .  A
C1019      C2619   1.474       .  S
C1020      H1022   1.082       .  S
N1023      N1024   1.319       .  A
N1023      C1027   1.342       .  A
N1023     Cu1031   2.066       .  S
N1024      C1025   1.345       .  A
N1024     Cu1030   2.069       .  S
C1025      C1026   1.390       .  A
C1025      H1028   1.081       .  S
C1026      C1027   1.388       .  A
C1026      C1851   1.486       .  S
C1027      H1029   1.081       .  S
Cu1030     N1033   2.069       .  S
Cu1031     N1041   2.066       .  S
Cu1032     N1034   2.076       .  S
Cu1032     N1040   2.075       .  S
N1033      N1034   1.322       .  A
N1033      C1037   1.342       .  A
N1034      C1035   1.344       .  A
C1035      C1036   1.388       .  A
C1035      H1038   1.081       .  S
C1036      C1037   1.386       .  A
C1036      C2235   1.483       .  S
C1037      H1039   1.081       .  S
N1040      N1041   1.322       .  A
N1040      C1044   1.347       .  A
N1041      C1042   1.342       .  A
C1042      C1043   1.381       .  A
C1042      H1045   1.082       .  S
C1043      C1044   1.385       .  A
C1043      C2667   1.473       .  S
C1044      H1046   1.082       .  S
O1047     Cu1055   2.014       .  S
O1047      C1057   1.279       .  A
O1048     Cu1055   2.011       .  S
O1048      C1058   1.279       .  A
O1049     Cu1055   1.999       .  S
O1049      C1059   1.277       .  A
O1050     Cu1055   1.999       .  S
O1050      C1060   1.278       .  A
O1051     Cu1056   2.018       .  S
O1051      C1060   1.279       .  A
O1052     Cu1056   2.015       .  S
O1052      C1059   1.280       .  A
O1053     Cu1056   2.010       .  S
O1053      C1058   1.278       .  A
O1054     Cu1056   2.013       .  S
O1054      C1057   1.279       .  A
Cu1055    Cu1056   2.370       .  S
C1057      C1800   1.485       .  S
C1058      C1875   1.483       .  S
C1059      C1824   1.479       .  S
C1060      C1776   1.482       .  S
N1061      N1062   1.320       .  A
N1061      C1065   1.345       .  A
N1061     Cu1069   2.076       .  S
N1062      C1063   1.342       .  A
N1062     Cu1068   2.065       .  S
C1063      C1064   1.387       .  A
C1063      H1066   1.081       .  S
C1064      C1065   1.389       .  A
C1064      C2403   1.486       .  S
C1065      H1067   1.081       .  S
Cu1068     N1071   2.065       .  S
Cu1069     N1079   2.077       .  S
Cu1070     N1072   2.078       .  S
Cu1070     N1078   2.079       .  S
N1071      N1072   1.320       .  A
N1071      C1075   1.344       .  A
N1072      C1073   1.343       .  A
C1073      C1074   1.391       .  A
C1073      H1076   1.080       .  S
C1074      C1075   1.388       .  A
C1074      C1779   1.489       .  S
C1075      H1077   1.081       .  S
N1078      N1079   1.322       .  A
N1078      C1082   1.345       .  A
N1079      C1080   1.346       .  A
C1080      C1081   1.386       .  A
C1080      H1083   1.082       .  S
C1081      C1082   1.386       .  A
C1081      C2595   1.482       .  S
C1082      H1084   1.082       .  S
N1085      N1086   1.322       .  A
N1085      C1089   1.343       .  A
N1085     Cu1093   2.074       .  S
N1086      C1087   1.350       .  A
N1086     Cu1092   2.093       .  S
C1087      C1088   1.392       .  A
C1087      H1090   1.081       .  S
C1088      C1089   1.387       .  A
C1088      C1803   1.491       .  S
C1089      H1091   1.081       .  S
Cu1092     N1095   2.093       .  S
Cu1093     N1103   2.074       .  S
Cu1094     N1096   2.068       .  S
Cu1094     N1102   2.067       .  S
N1095      N1096   1.322       .  A
N1095      C1099   1.347       .  A
N1096      C1097   1.343       .  A
C1097      C1098   1.387       .  A
C1097      H1100   1.081       .  S
C1098      C1099   1.393       .  A
C1098      C1755   1.493       .  S
C1099      H1101   1.081       .  S
N1102      N1103   1.321       .  A
N1102      C1106   1.345       .  A
N1103      C1104   1.345       .  A
C1104      C1105   1.386       .  A
C1104      H1107   1.082       .  S
C1105      C1106   1.384       .  A
C1105      C3243   1.477       .  S
C1106      H1108   1.082       .  S
O1109     Cu1117   1.999       .  S
O1109      C1119   1.277       .  A
O1110     Cu1117   1.996   1_565  S
O1110      C1120   1.277       .  A
O1111     Cu1117   2.027       .  S
O1111      C1121   1.280       .  A
O1112     Cu1117   2.022   1_565  S
O1112      C1122   1.280       .  A
O1113     Cu1118   1.999   1_565  S
O1113      C1122   1.277       .  A
O1114     Cu1118   2.001       .  S
O1114      C1121   1.277       .  A
O1115     Cu1118   2.004   1_565  S
O1115      C1120   1.278       .  A
O1116     Cu1118   2.004       .  S
O1116      C1119   1.278       .  A
Cu1117    Cu1118   2.370       .  S
C1119      C1728   1.478       .  S
C1120      C1704   1.476       .  S
C1121      C1752   1.485       .  S
C1122      C1848   1.482       .  S
N1123      N1124   1.321       .  A
N1123      C1127   1.345       .  A
N1123     Cu1131   2.074       .  S
N1124      C1125   1.339       .  A
N1124     Cu1130   2.053       .  S
C1125      C1126   1.383       .  A
C1125      H1128   1.081       .  S
C1126      C1127   1.389       .  A
C1126      C2331   1.480       .  S
C1127      H1129   1.081       .  S
Cu1130     N1133   2.053       .  S
Cu1131     N1141   2.074       .  S
Cu1132     N1134   2.059       .  S
Cu1132     N1140   2.060       .  S
N1133      N1134   1.318       .  A
N1133      C1137   1.342       .  A
N1134      C1135   1.341       .  A
C1135      C1136   1.387       .  A
C1135      H1138   1.081       .  S
C1136      C1137   1.386       .  A
C1136      C1707   1.479       .  S
C1137      H1139   1.081       .  S
N1140      N1141   1.321       .  A
N1140      C1144   1.340       .  A
N1141      C1142   1.346       .  A
C1142      C1143   1.388       .  A
C1142      H1145   1.082       .  S
C1143      C1144   1.384       .  A
C1143      C2880   1.481       .  S
C1144      H1146   1.081       .  S
N1147      N1148   1.321       .  A
N1147      C1151   1.345       .  A
N1147     Cu1155   2.078       .  S
N1148      C1149   1.345       .  A
N1148     Cu1154   2.075       .  S
C1149      C1150   1.390       .  A
C1149      H1152   1.080       .  S
C1150      C1151   1.390       .  A
C1150      C2259   1.491       .  S
C1151      H1153   1.080       .  S
Cu1154     N1157   2.074       .  S
Cu1155     N1165   2.078       .  S
Cu1156     N1158   2.065       .  S
Cu1156     N1164   2.065       .  S
N1157      N1158   1.320       .  A
N1157      C1161   1.344       .  A
N1158      C1159   1.342       .  A
C1159      C1160   1.387       .  A
C1159      H1162   1.081       .  S
C1160      C1161   1.390       .  A
C1160      C1680   1.486       .  S
C1161      H1163   1.081       .  S
N1164      N1165   1.321       .  A
N1164      C1168   1.344       .  A
N1165      C1166   1.345       .  A
C1166      C1167   1.389       .  A
C1166      H1169   1.081       .  S
C1167      C1168   1.386       .  A
C1167      C3000   1.484       .  S
C1168      H1170   1.081       .  S
O1171     Cu1179   2.006   1_565  S
O1171      C1181   1.278       .  A
O1172     Cu1179   2.005       .  S
O1172      C1182   1.277       .  A
O1173     Cu1179   2.012   1_565  S
O1173      C1183   1.279       .  A
O1174     Cu1179   2.016       .  S
O1174      C1184   1.280       .  A
O1175     Cu1180   1.998       .  S
O1175      C1184   1.276       .  A
O1176     Cu1180   1.999   1_565  S
O1176      C1183   1.277       .  A
O1177     Cu1180   1.994       .  S
O1177      C1182   1.277       .  A
O1178     Cu1180   1.999   1_565  S
O1178      C1181   1.278       .  A
Cu1179    Cu1180   2.372       .  S
C1181      C1683   1.478       .  S
C1182      C1632   1.470       .  S
C1183      C1608   1.480       .  S
C1184      C1656   1.480       .  S
N1185      N1186   1.321       .  A
N1185      C1189   1.346       .  A
N1185     Cu1193   2.089       .  S
N1186      C1187   1.341       .  A
N1186     Cu1192   2.053       .  S
C1187      C1188   1.384       .  A
C1187      H1190   1.081       .  S
C1188      C1189   1.392       .  A
C1188      C2139   1.485       .  S
C1189      H1191   1.081       .  S
Cu1192     N1195   2.053       .  S
Cu1193     N1203   2.089       .  S
Cu1194     N1196   2.070       .  S
Cu1194     N1202   2.070       .  S
N1195      N1196   1.319       .  A
N1195      C1199   1.341       .  A
N1196      C1197   1.343       .  A
C1197      C1198   1.390       .  A
C1197      H1200   1.081       .  S
C1198      C1199   1.387       .  A
C1198      C1611   1.485       .  S
C1199      H1201   1.081       .  S
N1202      N1203   1.323       .  A
N1202      C1206   1.344       .  A
N1203      C1204   1.347       .  A
C1204      C1205   1.388       .  A
C1204      H1207   1.082       .  S
C1205      C1206   1.384       .  A
C1205      C2859   1.482       .  S
C1206      H1208   1.082       .  S
N1209      N1210   1.322       .  A
N1209      C1213   1.346       .  A
N1209     Cu1217   2.084       .  S
N1210      C1211   1.342       .  A
N1210     Cu1216   2.069       .  S
C1211      C1212   1.387       .  A
C1211      H1214   1.080       .  S
C1212      C1213   1.392       .  A
C1212      C1584   1.490       .  S
C1213      H1215   1.081       .  S
Cu1216     N1219   2.069       .  S
Cu1217     N1227   2.083       .  S
Cu1218     N1220   2.065       .  S
Cu1218     N1226   2.065       .  S
N1219      N1220   1.319       .  A
N1219      C1223   1.345       .  A
N1220      C1221   1.342       .  A
C1221      C1222   1.388       .  A
C1221      H1224   1.081       .  S
C1222      C1223   1.389       .  A
C1222      C1659   1.486       .  S
C1223      H1225   1.081       .  S
N1226      N1227   1.322       .  A
N1226      C1230   1.342       .  A
N1227      C1228   1.348       .  A
C1228      C1229   1.387       .  A
C1228      H1231   1.082       .  S
C1229      C1230   1.383       .  A
C1229      C3291   1.479       .  S
C1230      H1232   1.082       .  S
N1233      N1234   1.320       .  A
N1233      C1237   1.344       .  A
N1233     Cu1241   2.072       .  S
N1234      C1235   1.342       .  A
N1234     Cu1240   2.067       .  S
C1235      C1236   1.388       .  A
C1235      H1238   1.081       .  S
C1236      C1237   1.389       .  A
C1236      C1731   1.486       .  S
C1237      H1239   1.081       .  S
Cu1240     N1243   2.067       .  S
Cu1241     N1251   2.073       .  S
Cu1242     N1244   2.072       .  S
Cu1242     N1250   2.072       .  S
N1243      N1244   1.320       .  A
N1243      C1247   1.342       .  A
N1244      C1245   1.346       .  A
C1245      C1246   1.388       .  A
C1245      H1248   1.082       .  S
C1246      C1247   1.386       .  A
C1246      C1560   1.483       .  S
C1247      H1249   1.081       .  S
N1250      N1251   1.321       .  A
N1250      C1254   1.343       .  A
N1251      C1252   1.344       .  A
C1252      C1253   1.389       .  A
C1252      H1255   1.081       .  S
C1253      C1254   1.388       .  A
C1253      C3144   1.488       .  S
C1254      H1256   1.081       .  S
O1257     Cu1265   2.028       .  S
O1257      C1267   1.281       .  A
O1258     Cu1265   2.022       .  S
O1258      C1268   1.281       .  A
O1259     Cu1265   2.020       .  S
O1259      C1269   1.279       .  A
O1260     Cu1265   2.019       .  S
O1260      C1270   1.279       .  A
O1261     Cu1266   2.002       .  S
O1261      C1270   1.278       .  A
O1262     Cu1266   2.001       .  S
O1262      C1269   1.278       .  A
O1263     Cu1266   1.987       .  S
O1263      C1268   1.275       .  A
O1264     Cu1266   1.984       .  S
O1264      C1267   1.275       .  A
Cu1265    Cu1266   2.370       .  S
C1267      C1536   1.481       .  S
C1268      C1563   1.480       .  S
C1269      C1587   1.483       .  S
C1270      C1512   1.484       .  S
N1271      N1272   1.321       .  A
N1271      C1275   1.341       .  A
N1271     Cu1279   2.068       .  S
N1272      C1273   1.347       .  A
N1272     Cu1278   2.072       .  S
C1273      C1274   1.387       .  A
C1273      H1276   1.082       .  S
C1274      C1275   1.385       .  A
C1274      C1515   1.481       .  S
C1275      H1277   1.081       .  S
Cu1278     N1281   2.072       .  S
Cu1279     N1289   2.068       .  S
Cu1280     N1282   2.080       .  S
Cu1280     N1288   2.080       .  S
N1281      N1282   1.321       .  A
N1281      C1285   1.343       .  A
N1282      C1283   1.345       .  A
C1283      C1284   1.390       .  A
C1283      H1286   1.081       .  S
C1284      C1285   1.389       .  A
C1284      C1827   1.490       .  S
C1285      H1287   1.081       .  S
N1288      N1289   1.320       .  A
N1288      C1292   1.343       .  A
N1289      C1290   1.346       .  A
C1290      C1291   1.388       .  A
C1290      H1293   1.081       .  S
C1291      C1292   1.391       .  A
C1291      C3072   1.489       .  S
C1292      H1294   1.081       .  S
N1295      N1296   1.320       .  A
N1295      C1299   1.344       .  A
N1295     Cu1303   2.065       .  S
N1296      C1297   1.342       .  A
N1296     Cu1302   2.065       .  S
C1297      C1298   1.386       .  A
C1297      H1300   1.081       .  S
C1298      C1299   1.387       .  A
C1298      C1539   1.482       .  S
C1299      H1301   1.081       .  S
Cu1302     N1305   2.065       .  S
Cu1303     N1313   2.064       .  S
Cu1304     N1306   2.064       .  S
Cu1304     N1312   2.064       .  S
N1305      N1306   1.319       .  A
N1305      C1309   1.343       .  A
N1306      C1307   1.342       .  A
C1307      C1308   1.389       .  A
C1307      H1310   1.081       .  S
C1308      C1309   1.389       .  A
C1308      C1491   1.485       .  S
C1309      H1311   1.081       .  S
N1312      N1313   1.322       .  A
N1312      C1316   1.342       .  A
N1313      C1314   1.344       .  A
C1314      C1315   1.382       .  A
C1314      H1317   1.082       .  S
C1315      C1316   1.383       .  A
C1315      C3363   1.471       .  S
C1316      H1318   1.082       .  S
N1319      N1320   1.320       .  A
N1319      C1323   1.344       .  A
N1319     Cu1327   2.062       .  S
N1320      C1321   1.342       .  A
N1320     Cu1326   2.071       .  S
C1321      C1322   1.388       .  A
C1321      H1324   1.081       .  S
C1322      C1323   1.386       .  A
C1322      C1635   1.482       .  S
C1323      H1325   1.081       .  S
Cu1326     N1329   2.072       .  S
Cu1327     N1337   2.062       .  S
Cu1328     N1330   2.069       .  S
Cu1328     N1336   2.069       .  S
N1329      N1330   1.321       .  A
N1329      C1333   1.344       .  A
N1330      C1331   1.344       .  A
C1331      C1332   1.387       .  A
C1331      H1334   1.081       .  S
C1332      C1333   1.388       .  A
C1332      C1467   1.484       .  S
C1333      H1335   1.081       .  S
N1336      N1337   1.322       .  A
N1336      C1340   1.343       .  A
N1337      C1338   1.343       .  A
C1338      C1339   1.381       .  A
C1338      H1341   1.082       .  S
C1339      C1340   1.383       .  A
C1339      C3216   1.470       .  S
C1340      H1342   1.082       .  S
N1343      N1344   1.321       .  A
N1343      C1347   1.343       .  A
N1343     Cu1351   2.072       .  S
N1344      C1345   1.347       .  A
N1344     Cu1350   2.084       .  S
C1345      C1346   1.391       .  A
C1345      H1348   1.081       .  S
C1346      C1347   1.387       .  A
C1346      C1440   1.489       .  S
C1347      H1349   1.081       .  S
Cu1350     N1353   2.084       .  S
Cu1351     N1361   2.072       .  S
Cu1352     N1354   2.081       .  S
Cu1352     N1360   2.080       .  S
N1353      N1354   1.322       .  A
N1353      C1357   1.345       .  A
N1354      C1355   1.346       .  A
C1355      C1356   1.390       .  A
C1355      H1358   1.081       .  S
C1356      C1357   1.391       .  A
C1356      C1947   1.493       .  S
C1357      H1359   1.081       .  S
N1360      N1361   1.322       .  A
N1360      C1364   1.346       .  A
N1361      C1362   1.345       .  A
C1362      C1363   1.385       .  A
C1362      H1365   1.082       .  S
C1363      C1364   1.386       .  A
C1363      C2931   1.482       .  S
C1364      H1366   1.082       .  S
O1367     Cu1375   2.008       .  S
O1367      C1377   1.278       .  A
O1368     Cu1375   2.013       .  S
O1368      C1378   1.279       .  A
O1369     Cu1375   2.008       .  S
O1369      C1379   1.278       .  A
O1370     Cu1375   2.003       .  S
O1370      C1380   1.278       .  A
O1371     Cu1376   2.003       .  S
O1371      C1380   1.278       .  A
O1372     Cu1376   2.002       .  S
O1372      C1379   1.278       .  A
O1373     Cu1376   2.017       .  S
O1373      C1378   1.279       .  A
O1374     Cu1376   2.014       .  S
O1374      C1377   1.279       .  A
Cu1375    Cu1376   2.370       .  S
C1377      C1443   1.483       .  S
C1378      C1464   1.484       .  S
C1379      C1416   1.479       .  S
C1380      C1488   1.478       .  S
N1381      N1382   1.321       .  A
N1381      C1385   1.349       .  A
N1381     Cu1389   2.082       .  S
N1382      C1383   1.339       .  A
N1382     Cu1388   2.061       .  S
C1383      C1384   1.384       .  A
C1383      H1386   1.081       .  S
C1384      C1385   1.391       .  A
C1384      C1419   1.485       .  S
C1385      H1387   1.081       .  S
Cu1388     N1391   2.062       .  S
Cu1389     N1399   2.082       .  S
Cu1390     N1392   2.069       .  S
Cu1390     N1398   2.070       .  S
N1391      N1392   1.319       .  A
N1391      C1395   1.344       .  A
N1392      C1393   1.344       .  A
C1393      C1394   1.389       .  A
C1393      H1396   1.081       .  S
C1394      C1395   1.387       .  A
C1394      C2043   1.484       .  S
C1395      H1397   1.081       .  S
N1398      N1399   1.323       .  A
N1398      C1402   1.344       .  A
N1399      C1400   1.345       .  A
C1400      C1401   1.387       .  A
C1400      H1403   1.082       .  S
C1401      C1402   1.383       .  A
C1401      C2568   1.479       .  S
C1402      H1404   1.082       .  S
C1405      C1406   1.399       .  A
C1405      C1410   1.404       .  A
C1405      H1421   1.084       .  S
C1406      C1407   1.404       .  A
C1406      H1422   1.083       .  S
C1407      C1417   1.402       .  A
C1407      C1408   1.410       .  A
C1408      C1414   1.412       .  A
C1408      C1409   1.411       .  A
C1409      C1411   1.409       .  A
C1409      C1410   1.412       .  A
C1410      C1418   1.406       .  A
C1411      C1420   1.399       .  A
C1411      C1412   1.403       .  A
C1412      C1413   1.397       .  A
C1412      H1423   1.084       .  S
C1413      C1414   1.403       .  A
C1413      H1424   1.084       .  S
C1414      C1415   1.402       .  A
C1415      C1416   1.407       .  A
C1415      H1425   1.084       .  S
C1416      C1417   1.407       .  A
C1417      H1426   1.084       .  S
C1418      C1419   1.407       .  A
C1418      H1427   1.083       .  S
C1419      C1420   1.409       .  A
C1420      H1428   1.082       .  S
C1429      C1430   1.400       .  A
C1429      C1434   1.404       .  A
C1429      H1445   1.084       .  S
C1430      C1431   1.404       .  A
C1430      H1446   1.083       .  S
C1431      C1441   1.405       .  A
C1431      C1432   1.411       .  A
C1432      C1438   1.410       .  A
C1432      C1433   1.413       .  A
C1433      C1435   1.411       .  A
C1433      C1434   1.411       .  A
C1434      C1442   1.404       .  A
C1435      C1444   1.403       .  A
C1435      C1436   1.403       .  A
C1436      C1437   1.399       .  A
C1436      H1447   1.084       .  S
C1437      C1438   1.404       .  A
C1437      H1448   1.084       .  S
C1438      C1439   1.403       .  A
C1439      C1440   1.409       .  A
C1439      H1449   1.082       .  S
C1440      C1441   1.409       .  A
C1441      H1450   1.083       .  S
C1442      C1443   1.408       .  A
C1442      H1451   1.084       .  S
C1443      C1444   1.407       .  A
C1444      H1452   1.084       .  S
C1453      C1454   1.398       .  A
C1453      C1458   1.403       .  A
C1453      H1469   1.084       .  S
C1454      C1455   1.403       .  A
C1454      H1470   1.083       .  S
C1455      C1465   1.402       .  A
C1455      C1456   1.411       .  A
C1456      C1462   1.412       .  A
C1456      C1457   1.412       .  A
C1457      C1459   1.411       .  A
C1457      C1458   1.411       .  A
C1458      C1466   1.402       .  A
C1459      C1468   1.404       .  A
C1459      C1460   1.404       .  A
C1460      C1461   1.400       .  A
C1460      H1471   1.084       .  S
C1461      C1462   1.404       .  A
C1461      H1472   1.084       .  S
C1462      C1463   1.406   1_455  A
C1463      C1464   1.409       .  A
C1463      H1473   1.084       .  S
C1464      C1465   1.407   1_655  A
C1465      H1474   1.084       .  S
C1466      C1467   1.407       .  A
C1466      H1475   1.083       .  S
C1467      C1468   1.408       .  A
C1468      H1476   1.083       .  S
C1477      C1478   1.398       .  A
C1477      C1482   1.403       .  A
C1477      H1493   1.084       .  S
C1478      C1479   1.403       .  A
C1478      H1494   1.083       .  S
C1479      C1489   1.401   1_455  A
C1479      C1480   1.411       .  A
C1480      C1486   1.411       .  A
C1480      C1481   1.410       .  A
C1481      C1483   1.410       .  A
C1481      C1482   1.410       .  A
C1482      C1490   1.400       .  A
C1483      C1492   1.401       .  A
C1483      C1484   1.403       .  A
C1484      C1485   1.398       .  A
C1484      H1495   1.084       .  S
C1485      C1486   1.403       .  A
C1485      H1496   1.084       .  S
C1486      C1487   1.400   1_455  A
C1487      C1488   1.407       .  A
C1487      H1497   1.084       .  S
C1488      C1489   1.407       .  A
C1489      H1498   1.084       .  S
C1490      C1491   1.408       .  A
C1490      H1499   1.082       .  S
C1491      C1492   1.409       .  A
C1492      H1500   1.082       .  S
C1501      C1502   1.401       .  A
C1501      C1506   1.404       .  A
C1501      H1517   1.083       .  S
C1502      C1503   1.405       .  A
C1502      H1518   1.083       .  S
C1503      C1513   1.407       .  A
C1503      C1504   1.412       .  A
C1504      C1510   1.410       .  A
C1504      C1505   1.412       .  A
C1505      C1507   1.411       .  A
C1505      C1506   1.412       .  A
C1506      C1514   1.406       .  A
C1507      C1516   1.398       .  A
C1507      C1508   1.402       .  A
C1508      C1509   1.396       .  A
C1508      H1519   1.084       .  S
C1509      C1510   1.402       .  A
C1509      H1520   1.084       .  S
C1510      C1511   1.399       .  A
C1511      C1512   1.407       .  A
C1511      H1521   1.084       .  S
C1512      C1513   1.410       .  A
C1513      H1522   1.084       .  S
C1514      C1515   1.408       .  A
C1514      H1523   1.083       .  S
C1515      C1516   1.405       .  A
C1516      H1524   1.083       .  S
C1525      C1526   1.399   1_554  A
C1525      C1530   1.404       .  A
C1525      H1541   1.083       .  S
C1526      C1527   1.403       .  A
C1526      H1542   1.084       .  S
C1527      C1537   1.406       .  A
C1527      C1528   1.413       .  A
C1528      C1534   1.408       .  A
C1528      C1529   1.410   1_556  A
C1529      C1531   1.412       .  A
C1529      C1530   1.409       .  A
C1530      C1538   1.401       .  A
C1531      C1540   1.401       .  A
C1531      C1532   1.402       .  A
C1532      C1533   1.396   1_554  A
C1532      H1543   1.085       .  S
C1533      C1534   1.403       .  A
C1533      H1544   1.083       .  S
C1534      C1535   1.397       .  A
C1535      C1536   1.408       .  A
C1535      H1545   1.083       .  S
C1536      C1537   1.407       .  A
C1537      H1546   1.084       .  S
C1538      C1539   1.408       .  A
C1538      H1547   1.082       .  S
C1539      C1540   1.406       .  A
C1540      H1548   1.084       .  S
C1549      C1550   1.397       .  A
C1549      C1554   1.402       .  A
C1549      H1565   1.083       .  S
C1550      C1551   1.403       .  A
C1550      H1566   1.084       .  S
C1551      C1561   1.400       .  A
C1551      C1552   1.410       .  A
C1552      C1558   1.412       .  A
C1552      C1553   1.411       .  A
C1553      C1555   1.410       .  A
C1553      C1554   1.412       .  A
C1554      C1562   1.402       .  A
C1555      C1564   1.401       .  A
C1555      C1556   1.404       .  A
C1556      C1557   1.399       .  A
C1556      H1567   1.084       .  S
C1557      C1558   1.404       .  A
C1557      H1568   1.083       .  S
C1558      C1559   1.404       .  A
C1559      C1560   1.408       .  A
C1559      H1569   1.083       .  S
C1560      C1561   1.407       .  A
C1561      H1570   1.083       .  S
C1562      C1563   1.405       .  A
C1562      H1571   1.084       .  S
C1563      C1564   1.409       .  A
C1564      H1572   1.084       .  S
C1573      C1574   1.398   1_556  A
C1573      C1578   1.403       .  A
C1573      H1589   1.084       .  S
C1574      C1575   1.403       .  A
C1574      H1590   1.084       .  S
C1575      C1585   1.403       .  A
C1575      C1576   1.411       .  A
C1576      C1582   1.409       .  A
C1576      C1577   1.412   1_554  A
C1577      C1579   1.412       .  A
C1577      C1578   1.410       .  A
C1578      C1586   1.401       .  A
C1579      C1588   1.406       .  A
C1579      C1580   1.404       .  A
C1580      C1581   1.400   1_556  A
C1580      H1591   1.083       .  S
C1581      C1582   1.404       .  A
C1581      H1592   1.084       .  S
C1582      C1583   1.403       .  A
C1583      C1584   1.411       .  A
C1583      H1593   1.081       .  S
C1584      C1585   1.408       .  A
C1585      H1594   1.082       .  S
C1586      C1587   1.408       .  A
C1586      H1595   1.084       .  S
C1587      C1588   1.408       .  A
C1588      H1596   1.084       .  S
C1597      C1598   1.398       .  A
C1597      C1602   1.403       .  A
C1597      H1613   1.084       .  S
C1598      C1599   1.403       .  A
C1598      H1614   1.083       .  S
C1599      C1609   1.400       .  A
C1599      C1600   1.410       .  A
C1600      C1606   1.412       .  A
C1600      C1601   1.410       .  A
C1601      C1603   1.410       .  A
C1601      C1602   1.410       .  A
C1602      C1610   1.401       .  A
C1603      C1612   1.401       .  A
C1603      C1604   1.403       .  A
C1604      C1605   1.398       .  A
C1604      H1615   1.084       .  S
C1605      C1606   1.403       .  A
C1605      H1616   1.084       .  S
C1606      C1607   1.403       .  A
C1607      C1608   1.407       .  A
C1607      H1617   1.084       .  S
C1608      C1609   1.408       .  A
C1609      H1618   1.084       .  S
C1610      C1611   1.409       .  A
C1610      H1619   1.082       .  S
C1611      C1612   1.408       .  A
C1612      H1620   1.082       .  S
C1621      C1622   1.400       .  A
C1621      C1626   1.404       .  A
C1621      H1637   1.084       .  S
C1622      C1623   1.404       .  A
C1622      H1638   1.084       .  S
C1623      C1633   1.403       .  A
C1623      C1624   1.412       .  A
C1624      C1630   1.411       .  A
C1624      C1625   1.409       .  A
C1625      C1627   1.410       .  A
C1625      C1626   1.411       .  A
C1626      C1634   1.403       .  A
C1627      C1636   1.398       .  A
C1627      C1628   1.402       .  A
C1628      C1629   1.395       .  A
C1628      H1639   1.084       .  S
C1629      C1630   1.402       .  A
C1629      H1640   1.084       .  S
C1630      C1631   1.397       .  A
C1631      C1632   1.403       .  A
C1631      H1641   1.085       .  S
C1632      C1633   1.406       .  A
C1633      H1642   1.084       .  S
C1634      C1635   1.409       .  A
C1634      H1643   1.083       .  S
C1635      C1636   1.406       .  A
C1636      H1644   1.082       .  S
C1645      C1646   1.400       .  A
C1645      C1650   1.404       .  A
C1645      H1661   1.083       .  S
C1646      C1647   1.404       .  A
C1646      H1662   1.084       .  S
C1647      C1657   1.404       .  A
C1647      C1648   1.411       .  A
C1648      C1654   1.412       .  A
C1648      C1649   1.411       .  A
C1649      C1651   1.410       .  A
C1649      C1650   1.411       .  A
C1650      C1658   1.405       .  A
C1651      C1660   1.399       .  A
C1651      C1652   1.403       .  A
C1652      C1653   1.397       .  A
C1652      H1663   1.084       .  S
C1653      C1654   1.402       .  A
C1653      H1664   1.083       .  S
C1654      C1655   1.401       .  A
C1655      C1656   1.405       .  A
C1655      H1665   1.084       .  S
C1656      C1657   1.409       .  A
C1657      H1666   1.084       .  S
C1658      C1659   1.410       .  A
C1658      H1667   1.082       .  S
C1659      C1660   1.407       .  A
C1660      H1668   1.082       .  S
C1669      C1670   1.397       .  A
C1669      C1674   1.402       .  A
C1669      H1685   1.084       .  S
C1670      C1671   1.403       .  A
C1670      H1686   1.083       .  S
C1671      C1681   1.400       .  A
C1671      C1672   1.410       .  A
C1672      C1678   1.410       .  A
C1672      C1673   1.410       .  A
C1673      C1675   1.411       .  A
C1673      C1674   1.411       .  A
C1674      C1682   1.399       .  A
C1675      C1684   1.403       .  A
C1675      C1676   1.404       .  A
C1676      C1677   1.399       .  A
C1676      H1687   1.083       .  S
C1677      C1678   1.404       .  A
C1677      H1688   1.084       .  S
C1678      C1679   1.402       .  A
C1679      C1680   1.409       .  A
C1679      H1689   1.082       .  S
C1680      C1681   1.407       .  A
C1681      H1690   1.082       .  S
C1682      C1683   1.406       .  A
C1682      H1691   1.084       .  S
C1683      C1684   1.408       .  A
C1684      H1692   1.084       .  S
C1693      C1694   1.397       .  A
C1693      C1698   1.403       .  A
C1693      H1709   1.084       .  S
C1694      C1695   1.403       .  A
C1694      H1710   1.084       .  S
C1695      C1705   1.399       .  A
C1695      C1696   1.411       .  A
C1696      C1702   1.411       .  A
C1696      C1697   1.409       .  A
C1697      C1699   1.410       .  A
C1697      C1698   1.410       .  A
C1698      C1706   1.399       .  A
C1699      C1708   1.400       .  A
C1699      C1700   1.403       .  A
C1700      C1701   1.398       .  A
C1700      H1711   1.083       .  S
C1701      C1702   1.403       .  A
C1701      H1712   1.083       .  S
C1702      C1703   1.401       .  A
C1703      C1704   1.406       .  A
C1703      H1713   1.084       .  S
C1704      C1705   1.406       .  A
C1705      H1714   1.084       .  S
C1706      C1707   1.406       .  A
C1706      H1715   1.083       .  S
C1707      C1708   1.407       .  A
C1708      H1716   1.082       .  S
C1717      C1718   1.397       .  A
C1717      C1722   1.403       .  A
C1717      H1733   1.083       .  S
C1718      C1719   1.402       .  A
C1718      H1734   1.084       .  S
C1719      C1729   1.400       .  A
C1719      C1720   1.411       .  A
C1720      C1726   1.411       .  A
C1720      C1721   1.410       .  A
C1721      C1723   1.411       .  A
C1721      C1722   1.410       .  A
C1722      C1730   1.400       .  A
C1723      C1732   1.403       .  A
C1723      C1724   1.404       .  A
C1724      C1725   1.399       .  A
C1724      H1735   1.084       .  S
C1725      C1726   1.403       .  A
C1725      H1736   1.083       .  S
C1726      C1727   1.402       .  A
C1727      C1728   1.408       .  A
C1727      H1737   1.084       .  S
C1728      C1729   1.406       .  A
C1729      H1738   1.084       .  S
C1730      C1731   1.408       .  A
C1730      H1739   1.081       .  S
C1731      C1732   1.408       .  A
C1732      H1740   1.083       .  S
C1741      C1742   1.398       .  A
C1741      C1746   1.403       .  A
C1741      H1757   1.084       .  S
C1742      C1743   1.403       .  A
C1742      H1758   1.084       .  S
C1743      C1753   1.402       .  A
C1743      C1744   1.410       .  A
C1744      C1750   1.412       .  A
C1744      C1745   1.413       .  A
C1745      C1747   1.409       .  A
C1745      C1746   1.411       .  A
C1746      C1754   1.404       .  A
C1747      C1756   1.405       .  A
C1747      C1748   1.405       .  A
C1748      C1749   1.401       .  A
C1748      H1759   1.084       .  S
C1749      C1750   1.404       .  A
C1749      H1760   1.084       .  S
C1750      C1751   1.407       .  A
C1751      C1752   1.408       .  A
C1751      H1761   1.084       .  S
C1752      C1753   1.408       .  A
C1753      H1762   1.084       .  S
C1754      C1755   1.408       .  A
C1754      H1763   1.082       .  S
C1755      C1756   1.412       .  A
C1756      H1764   1.082       .  S
C1765      C1766   1.401       .  A
C1765      C1770   1.405       .  A
C1765      H1781   1.084       .  S
C1766      C1767   1.404       .  A
C1766      H1782   1.083       .  S
C1767      C1777   1.407       .  A
C1767      C1768   1.412       .  A
C1768      C1774   1.410       .  A
C1768      C1769   1.412       .  A
C1769      C1771   1.410       .  A
C1769      C1770   1.410       .  A
C1770      C1778   1.405       .  A
C1771      C1780   1.399       .  A
C1771      C1772   1.402       .  A
C1772      C1773   1.396       .  A
C1772      H1783   1.084       .  S
C1773      C1774   1.402       .  A
C1773      H1784   1.084       .  S
C1774      C1775   1.398       .  A
C1775      C1776   1.406       .  A
C1775      H1785   1.084       .  S
C1776      C1777   1.409       .  A
C1777      H1786   1.084       .  S
C1778      C1779   1.411       .  A
C1778      H1787   1.082       .  S
C1779      C1780   1.407       .  A
C1780      H1788   1.081       .  S
C1789      C1790   1.399       .  A
C1789      C1794   1.404       .  A
C1789      H1805   1.084       .  S
C1790      C1791   1.403       .  A
C1790      H1806   1.084       .  S
C1791      C1801   1.404   1_455  A
C1791      C1792   1.412       .  A
C1792      C1798   1.410   1_455  A
C1792      C1793   1.414       .  A
C1793      C1795   1.412       .  A
C1793      C1794   1.409       .  A
C1794      C1802   1.402       .  A
C1795      C1804   1.408       .  A
C1795      C1796   1.404       .  A
C1796      C1797   1.401       .  A
C1796      H1807   1.083       .  S
C1797      C1798   1.404   1_455  A
C1797      H1808   1.083   1_455  S
C1798      C1799   1.405       .  A
C1799      C1800   1.409       .  A
C1799      H1809   1.084       .  S
C1800      C1801   1.408       .  A
C1801      H1810   1.084       .  S
C1802      C1803   1.410       .  A
C1802      H1811   1.082       .  S
C1803      C1804   1.409       .  A
C1804      H1812   1.083       .  S
C1813      C1814   1.398       .  A
C1813      C1818   1.404       .  A
C1813      H1829   1.084       .  S
C1814      C1815   1.403   1_455  A
C1814      H1830   1.084   1_455  S
C1815      C1825   1.402       .  A
C1815      C1816   1.412   1_655  A
C1816      C1822   1.411       .  A
C1816      C1817   1.412       .  A
C1817      C1819   1.411       .  A
C1817      C1818   1.410       .  A
C1818      C1826   1.401       .  A
C1819      C1828   1.404       .  A
C1819      C1820   1.404       .  A
C1820      C1821   1.399       .  A
C1820      H1831   1.084       .  S
C1821      C1822   1.404       .  A
C1821      H1832   1.083       .  S
C1822      C1823   1.403   1_455  A
C1823      C1824   1.408       .  A
C1823      H1833   1.084       .  S
C1824      C1825   1.406       .  A
C1825      H1834   1.084       .  S
C1826      C1827   1.409       .  A
C1826      H1835   1.082       .  S
C1827      C1828   1.409       .  A
C1828      H1836   1.082       .  S
C1837      C1838   1.399       .  A
C1837      C1842   1.404       .  A
C1837      H1853   1.084       .  S
C1838      C1839   1.403       .  A
C1838      H1854   1.083       .  S
C1839      C1849   1.404       .  A
C1839      C1840   1.412       .  A
C1840      C1846   1.410       .  A
C1840      C1841   1.412       .  A
C1841      C1843   1.411       .  A
C1841      C1842   1.410       .  A
C1842      C1850   1.401       .  A
C1843      C1852   1.403       .  A
C1843      C1844   1.404       .  A
C1844      C1845   1.399       .  A
C1844      H1855   1.083       .  S
C1845      C1846   1.404       .  A
C1845      H1856   1.084       .  S
C1846      C1847   1.402       .  A
C1847      C1848   1.408       .  A
C1847      H1857   1.084       .  S
C1848      C1849   1.407       .  A
C1849      H1858   1.084       .  S
C1850      C1851   1.408       .  A
C1850      H1859   1.082       .  S
C1851      C1852   1.408       .  A
C1852      H1860   1.082       .  S
C1861      C1862   1.397       .  A
C1861      C1866   1.403       .  A
C1861      H1877   1.083       .  S
C1862      C1863   1.403       .  A
C1862      H1878   1.084       .  S
C1863      C1873   1.400       .  A
C1863      C1864   1.410       .  A
C1864      C1870   1.410       .  A
C1864      C1865   1.411       .  A
C1865      C1867   1.411       .  A
C1865      C1866   1.411       .  A
C1866      C1874   1.401       .  A
C1867      C1876   1.404       .  A
C1867      C1868   1.404       .  A
C1868      C1869   1.399       .  A
C1868      H1879   1.084       .  S
C1869      C1870   1.404       .  A
C1869      H1880   1.083       .  S
C1870      C1871   1.403       .  A
C1871      C1872   1.409       .  A
C1871      H1881   1.082       .  S
C1872      C1873   1.408       .  A
C1873      H1882   1.082       .  S
C1874      C1875   1.407       .  A
C1874      H1883   1.084       .  S
C1875      C1876   1.409       .  A
C1876      H1884   1.084       .  S
C1885      C1886   1.398       .  A
C1885      C1890   1.403       .  A
C1885      H1901   1.084       .  S
C1886      C1887   1.404       .  A
C1886      H1902   1.084       .  S
C1887      C1897   1.401       .  A
C1887      C1888   1.410       .  A
C1888      C1894   1.412       .  A
C1888      C1889   1.411       .  A
C1889      C1891   1.411       .  A
C1889      C1890   1.411       .  A
C1890      C1898   1.401       .  A
C1891      C1900   1.402       .  A
C1891      C1892   1.403       .  A
C1892      C1893   1.399       .  A
C1892      H1903   1.084       .  S
C1893      C1894   1.403       .  A
C1893      H1904   1.084       .  S
C1894      C1895   1.404       .  A
C1895      C1896   1.407       .  A
C1895      H1905   1.084       .  S
C1896      C1897   1.408       .  A
C1897      H1906   1.084       .  S
C1898      C1899   1.407       .  A
C1898      H1907   1.083       .  S
C1899      C1900   1.407       .  A
C1900      H1908   1.083       .  S
C1909      C1910   1.396       .  A
C1909      C1914   1.403       .  A
C1909      H1925   1.084       .  S
C1910      C1911   1.402       .  A
C1910      H1926   1.084       .  S
C1911      C1921   1.400       .  A
C1911      C1912   1.412       .  A
C1912      C1918   1.410       .  A
C1912      C1913   1.410       .  A
C1913      C1915   1.412       .  A
C1913      C1914   1.409       .  A
C1914      C1922   1.397       .  A
C1915      C1924   1.404       .  A
C1915      C1916   1.404       .  A
C1916      C1917   1.399       .  A
C1916      H1927   1.083       .  S
C1917      C1918   1.404       .  A
C1917      H1928   1.084       .  S
C1918      C1919   1.401       .  A
C1919      C1920   1.408       .  A
C1919      H1929   1.084       .  S
C1920      C1921   1.405       .  A
C1921      H1930   1.084       .  S
C1922      C1923   1.408       .  A
C1922      H1931   1.082       .  S
C1923      C1924   1.408       .  A
C1924      H1932   1.083       .  S
C1933      C1934   1.401       .  A
C1933      C1938   1.405       .  A
C1933      H1949   1.083       .  S
C1934      C1935   1.404   1_554  A
C1934      H1950   1.084   1_554  S
C1935      C1945   1.407       .  A
C1935      C1936   1.412       .  A
C1936      C1942   1.410       .  A
C1936      C1937   1.414   1_556  A
C1937      C1939   1.410       .  A
C1937      C1938   1.410       .  A
C1938      C1946   1.407       .  A
C1939      C1948   1.403       .  A
C1939      C1940   1.403       .  A
C1940      C1941   1.398   1_554  A
C1940      H1951   1.084       .  S
C1941      C1942   1.403       .  A
C1941      H1952   1.083       .  S
C1942      C1943   1.402       .  A
C1943      C1944   1.409       .  A
C1943      H1953   1.084       .  S
C1944      C1945   1.409       .  A
C1945      H1954   1.084       .  S
C1946      C1947   1.411       .  A
C1946      H1955   1.082       .  S
C1947      C1948   1.409       .  A
C1948      H1956   1.082       .  S
C1957      C1958   1.397       .  A
C1957      C1962   1.403       .  A
C1957      H1973   1.084       .  S
C1958      C1959   1.402   1_554  A
C1958      H1974   1.084   1_554  S
C1959      C1969   1.400       .  A
C1959      C1960   1.412       .  A
C1960      C1966   1.411       .  A
C1960      C1961   1.409   1_556  A
C1961      C1963   1.411       .  A
C1961      C1962   1.410       .  A
C1962      C1970   1.399       .  A
C1963      C1972   1.402       .  A
C1963      C1964   1.403       .  A
C1964      C1965   1.399   1_554  A
C1964      H1975   1.084       .  S
C1965      C1966   1.404       .  A
C1965      H1976   1.083       .  S
C1966      C1967   1.401       .  A
C1967      C1968   1.408       .  A
C1967      H1977   1.084       .  S
C1968      C1969   1.405       .  A
C1969      H1978   1.084       .  S
C1970      C1971   1.406       .  A
C1970      H1979   1.083       .  S
C1971      C1972   1.407       .  A
C1972      H1980   1.083       .  S
C1981      C1982   1.400       .  A
C1981      C1986   1.404       .  A
C1981      H1997   1.084       .  S
C1982      C1983   1.404       .  A
C1982      H1998   1.084       .  S
C1983      C1993   1.404       .  A
C1983      C1984   1.411       .  A
C1984      C1990   1.411       .  A
C1984      C1985   1.411       .  A
C1985      C1987   1.409       .  A
C1985      C1986   1.411       .  A
C1986      C1994   1.404       .  A
C1987      C1996   1.398       .  A
C1987      C1988   1.403       .  A
C1988      C1989   1.397       .  A
C1988      H1999   1.084       .  S
C1989      C1990   1.403       .  A
C1989      H2000   1.083       .  S
C1990      C1991   1.400       .  A
C1991      C1992   1.407       .  A
C1991      H2001   1.084       .  S
C1992      C1993   1.408       .  A
C1993      H2002   1.084       .  S
C1994      C1995   1.409       .  A
C1994      H2003   1.082       .  S
C1995      C1996   1.408       .  A
C1996      H2004   1.081       .  S
C2005      C2006   1.398       .  A
C2005      C2010   1.403       .  A
C2005      H2021   1.083       .  S
C2006      C2007   1.403       .  A
C2006      H2022   1.084       .  S
C2007      C2017   1.403       .  A
C2007      C2008   1.411       .  A
C2008      C2014   1.410       .  A
C2008      C2009   1.412       .  A
C2009      C2011   1.412       .  A
C2009      C2010   1.410       .  A
C2010      C2018   1.402       .  A
C2011      C2020   1.404       .  A
C2011      C2012   1.404       .  A
C2012      C2013   1.399       .  A
C2012      H2023   1.084       .  S
C2013      C2014   1.404       .  A
C2013      H2024   1.084       .  S
C2014      C2015   1.402       .  A
C2015      C2016   1.408       .  A
C2015      H2025   1.082       .  S
C2016      C2017   1.408       .  A
C2017      H2026   1.083       .  S
C2018      C2019   1.407       .  A
C2018      H2027   1.084       .  S
C2019      C2020   1.408       .  A
C2020      H2028   1.084       .  S
C2029      C2030   1.400       .  A
C2029      C2034   1.404       .  A
C2029      H2045   1.084       .  S
C2030      C2031   1.404       .  A
C2030      H2046   1.083       .  S
C2031      C2041   1.405       .  A
C2031      C2032   1.412       .  A
C2032      C2038   1.411       .  A
C2032      C2033   1.412       .  A
C2033      C2035   1.411       .  A
C2033      C2034   1.411       .  A
C2034      C2042   1.404       .  A
C2035      C2044   1.401       .  A
C2035      C2036   1.403       .  A
C2036      C2037   1.397       .  A
C2036      H2047   1.084       .  S
C2037      C2038   1.403       .  A
C2037      H2048   1.084       .  S
C2038      C2039   1.400       .  A
C2039      C2040   1.407       .  A
C2039      H2049   1.084       .  S
C2040      C2041   1.408       .  A
C2041      H2050   1.084       .  S
C2042      C2043   1.409       .  A
C2042      H2051   1.083       .  S
C2043      C2044   1.407       .  A
C2044      H2052   1.083       .  S
C2053      C2054   1.399       .  A
C2053      C2058   1.404       .  A
C2053      H2069   1.083       .  S
C2054      C2055   1.403       .  A
C2054      H2070   1.084       .  S
C2055      C2065   1.403       .  A
C2055      C2056   1.412       .  A
C2056      C2062   1.410       .  A
C2056      C2057   1.411       .  A
C2057      C2059   1.411       .  A
C2057      C2058   1.411       .  A
C2058      C2066   1.403       .  A
C2059      C2068   1.401       .  A
C2059      C2060   1.403       .  A
C2060      C2061   1.397       .  A
C2060      H2071   1.084       .  S
C2061      C2062   1.403       .  A
C2061      H2072   1.084       .  S
C2062      C2063   1.400       .  A
C2063      C2064   1.406       .  A
C2063      H2073   1.083       .  S
C2064      C2065   1.406       .  A
C2065      H2074   1.084       .  S
C2066      C2067   1.408       .  A
C2066      H2075   1.084       .  S
C2067      C2068   1.407       .  A
C2068      H2076   1.084       .  S
C2077      C2078   1.401       .  A
C2077      C2082   1.404       .  A
C2077      H2093   1.084       .  S
C2078      C2079   1.404       .  A
C2078      H2094   1.083       .  S
C2079      C2089   1.407       .  A
C2079      C2080   1.412       .  A
C2080      C2086   1.410       .  A
C2080      C2081   1.412       .  A
C2081      C2083   1.412       .  A
C2081      C2082   1.411       .  A
C2082      C2090   1.404       .  A
C2083      C2092   1.402       .  A
C2083      C2084   1.403       .  A
C2084      C2085   1.397       .  A
C2084      H2095   1.084       .  S
C2085      C2086   1.403       .  A
C2085      H2096   1.084       .  S
C2086      C2087   1.400       .  A
C2087      C2088   1.407       .  A
C2087      H2097   1.082       .  S
C2088      C2089   1.409       .  A
C2089      H2098   1.083       .  S
C2090      C2091   1.409       .  A
C2090      H2099   1.084       .  S
C2091      C2092   1.406       .  A
C2092      H2100   1.084       .  S
C2101      C2102   1.398       .  A
C2101      C2106   1.403       .  A
C2101      H2117   1.084       .  S
C2102      C2103   1.403       .  A
C2102      H2118   1.084       .  S
C2103      C2113   1.400       .  A
C2103      C2104   1.411       .  A
C2104      C2110   1.411       .  A
C2104      C2105   1.409       .  A
C2105      C2107   1.410       .  A
C2105      C2106   1.411       .  A
C2106      C2114   1.401       .  A
C2107      C2116   1.399       .  A
C2107      C2108   1.403       .  A
C2108      C2109   1.397       .  A
C2108      H2119   1.084       .  S
C2109      C2110   1.402       .  A
C2109      H2120   1.084       .  S
C2110      C2111   1.399       .  A
C2111      C2112   1.405       .  A
C2111      H2121   1.084       .  S
C2112      C2113   1.407       .  A
C2113      H2122   1.084       .  S
C2114      C2115   1.408       .  A
C2114      H2123   1.082       .  S
C2115      C2116   1.407       .  A
C2116      H2124   1.082       .  S
C2125      C2126   1.400       .  A
C2125      C2130   1.404       .  A
C2125      H2141   1.084       .  S
C2126      C2127   1.404       .  A
C2126      H2142   1.083       .  S
C2127      C2137   1.404       .  A
C2127      C2128   1.411       .  A
C2128      C2134   1.411       .  A
C2128      C2129   1.411       .  A
C2129      C2131   1.411       .  A
C2129      C2130   1.410       .  A
C2130      C2138   1.403       .  A
C2131      C2140   1.401       .  A
C2131      C2132   1.403       .  A
C2132      C2133   1.397       .  A
C2132      H2143   1.083       .  S
C2133      C2134   1.403       .  A
C2133      H2144   1.084       .  S
C2134      C2135   1.401       .  A
C2135      C2136   1.407       .  A
C2135      H2145   1.084       .  S
C2136      C2137   1.409       .  A
C2137      H2146   1.084       .  S
C2138      C2139   1.410       .  A
C2138      H2147   1.082       .  S
C2139      C2140   1.406       .  A
C2140      H2148   1.083       .  S
C2149      C2150   1.399       .  A
C2149      C2154   1.404       .  A
C2149      H2165   1.084       .  S
C2150      C2151   1.404       .  A
C2150      H2166   1.083       .  S
C2151      C2161   1.403       .  A
C2151      C2152   1.411       .  A
C2152      C2158   1.411       .  A
C2152      C2153   1.411       .  A
C2153      C2155   1.410       .  A
C2153      C2154   1.410       .  A
C2154      C2162   1.403       .  A
C2155      C2164   1.401       .  A
C2155      C2156   1.403       .  A
C2156      C2157   1.397       .  A
C2156      H2167   1.083       .  S
C2157      C2158   1.402       .  A
C2157      H2168   1.084       .  S
C2158      C2159   1.399       .  A
C2159      C2160   1.406   1_455  A
C2159      H2169   1.084       .  S
C2160      C2161   1.408   1_655  A
C2161      H2170   1.084   1_455  S
C2162      C2163   1.410       .  A
C2162      H2171   1.082       .  S
C2163      C2164   1.408       .  A
C2164      H2172   1.082       .  S
C2173      C2174   1.400       .  A
C2173      C2178   1.404       .  A
C2173      H2189   1.084       .  S
C2174      C2175   1.404       .  A
C2174      H2190   1.083       .  S
C2175      C2185   1.404       .  A
C2175      C2176   1.411       .  A
C2176      C2182   1.412       .  A
C2176      C2177   1.413       .  A
C2177      C2179   1.410       .  A
C2177      C2178   1.411       .  A
C2178      C2186   1.405       .  A
C2179      C2188   1.403       .  A
C2179      C2180   1.404       .  A
C2180      C2181   1.399       .  A
C2180      H2191   1.083       .  S
C2181      C2182   1.403       .  A
C2181      H2192   1.084       .  S
C2182      C2183   1.404       .  A
C2183      C2184   1.407       .  A
C2183      H2193   1.084       .  S
C2184      C2185   1.409       .  A
C2185      H2194   1.084       .  S
C2186      C2187   1.409       .  A
C2186      H2195   1.083       .  S
C2187      C2188   1.409       .  A
C2188      H2196   1.082       .  S
C2197      C2198   1.401   1_554  A
C2197      C2202   1.404       .  A
C2197      H2213   1.084       .  S
C2198      C2199   1.405       .  A
C2198      H2214   1.083       .  S
C2199      C2209   1.406       .  A
C2199      C2200   1.411       .  A
C2200      C2206   1.412       .  A
C2200      C2201   1.414   1_556  A
C2201      C2203   1.410       .  A
C2201      C2202   1.412       .  A
C2202      C2210   1.408       .  A
C2203      C2212   1.402       .  A
C2203      C2204   1.404       .  A
C2204      C2205   1.398   1_554  A
C2204      H2215   1.083       .  S
C2205      C2206   1.403       .  A
C2205      H2216   1.084       .  S
C2206      C2207   1.403       .  A
C2207      C2208   1.406       .  A
C2207      H2217   1.084       .  S
C2208      C2209   1.410       .  A
C2209      H2218   1.084       .  S
C2210      C2211   1.409       .  A
C2210      H2219   1.083       .  S
C2211      C2212   1.409       .  A
C2212      H2220   1.082       .  S
C2221      C2222   1.399       .  A
C2221      C2226   1.404       .  A
C2221      H2237   1.084       .  S
C2222      C2223   1.403       .  A
C2222      H2238   1.083       .  S
C2223      C2233   1.404       .  A
C2223      C2224   1.412       .  A
C2224      C2230   1.410       .  A
C2224      C2225   1.411       .  A
C2225      C2227   1.411       .  A
C2225      C2226   1.410       .  A
C2226      C2234   1.402       .  A
C2227      C2236   1.401       .  A
C2227      C2228   1.403       .  A
C2228      C2229   1.397       .  A
C2228      H2239   1.084       .  S
C2229      C2230   1.403       .  A
C2229      H2240   1.084       .  S
C2230      C2231   1.400       .  A
C2231      C2232   1.408       .  A
C2231      H2241   1.084       .  S
C2232      C2233   1.407       .  A
C2233      H2242   1.084       .  S
C2234      C2235   1.408       .  A
C2234      H2243   1.083       .  S
C2235      C2236   1.407       .  A
C2236      H2244   1.083       .  S
C2245      C2246   1.400       .  A
C2245      C2250   1.404       .  A
C2245      H2261   1.083       .  S
C2246      C2247   1.404   1_554  A
C2246      H2262   1.083   1_554  S
C2247      C2257   1.406       .  A
C2247      C2248   1.412   1_556  A
C2248      C2254   1.410   1_554  A
C2248      C2249   1.413       .  A
C2249      C2251   1.410       .  A
C2249      C2250   1.410       .  A
C2250      C2258   1.405       .  A
C2251      C2260   1.403       .  A
C2251      C2252   1.404       .  A
C2252      C2253   1.398       .  A
C2252      H2263   1.083       .  S
C2253      C2254   1.403   1_554  A
C2253      H2264   1.084   1_554  S
C2254      C2255   1.402       .  A
C2255      C2256   1.409       .  A
C2255      H2265   1.084       .  S
C2256      C2257   1.408       .  A
C2257      H2266   1.084       .  S
C2258      C2259   1.410       .  A
C2258      H2267   1.081       .  S
C2259      C2260   1.409       .  A
C2260      H2268   1.081       .  S
C2269      C2270   1.400       .  A
C2269      C2274   1.404       .  A
C2269      H2285   1.084       .  S
C2270      C2271   1.404       .  A
C2270      H2286   1.084       .  S
C2271      C2281   1.405       .  A
C2271      C2272   1.412       .  A
C2272      C2278   1.410       .  A
C2272      C2273   1.412       .  A
C2273      C2275   1.411       .  A
C2273      C2274   1.409       .  A
C2274      C2282   1.403       .  A
C2275      C2284   1.401       .  A
C2275      C2276   1.402       .  A
C2276      C2277   1.397       .  A
C2276      H2287   1.084       .  S
C2277      C2278   1.403       .  A
C2277      H2288   1.084       .  S
C2278      C2279   1.401       .  A
C2279      C2280   1.407       .  A
C2279      H2289   1.084       .  S
C2280      C2281   1.409       .  A
C2281      H2290   1.084       .  S
C2282      C2283   1.411       .  A
C2282      H2291   1.082       .  S
C2283      C2284   1.406       .  A
C2284      H2292   1.082       .  S
C2293      C2294   1.401       .  A
C2293      C2298   1.404       .  A
C2293      H2309   1.084       .  S
C2294      C2295   1.404       .  A
C2294      H2310   1.083       .  S
C2295      C2305   1.406   1_455  A
C2295      C2296   1.411       .  A
C2296      C2302   1.412       .  A
C2296      C2297   1.415       .  A
C2297      C2299   1.410       .  A
C2297      C2298   1.411       .  A
C2298      C2306   1.407       .  A
C2299      C2308   1.405       .  A
C2299      C2300   1.404       .  A
C2300      C2301   1.400       .  A
C2300      H2311   1.083       .  S
C2301      C2302   1.403       .  A
C2301      H2312   1.084       .  S
C2302      C2303   1.405   1_455  A
C2303      C2304   1.408       .  A
C2303      H2313   1.084       .  S
C2304      C2305   1.410       .  A
C2305      H2314   1.084       .  S
C2306      C2307   1.411       .  A
C2306      H2315   1.082       .  S
C2307      C2308   1.411       .  A
C2308      H2316   1.082       .  S
C2317      C2318   1.397       .  A
C2317      C2322   1.403       .  A
C2317      H2333   1.084       .  S
C2318      C2319   1.403       .  A
C2318      H2334   1.084       .  S
C2319      C2329   1.399   1_455  A
C2319      C2320   1.412       .  A
C2320      C2326   1.410       .  A
C2320      C2321   1.408       .  A
C2321      C2323   1.411       .  A
C2321      C2322   1.409       .  A
C2322      C2330   1.398       .  A
C2323      C2332   1.401       .  A
C2323      C2324   1.403       .  A
C2324      C2325   1.397       .  A
C2324      H2335   1.084       .  S
C2325      C2326   1.403       .  A
C2325      H2336   1.084       .  S
C2326      C2327   1.398   1_455  A
C2327      C2328   1.406       .  A
C2327      H2337   1.084       .  S
C2328      C2329   1.406       .  A
C2329      H2338   1.084       .  S
C2330      C2331   1.408       .  A
C2330      H2339   1.082       .  S
C2331      C2332   1.406       .  A
C2332      H2340   1.083       .  S
C2341      C2342   1.398       .  A
C2341      C2346   1.403       .  A
C2341      H2357   1.084       .  S
C2342      C2343   1.403       .  A
C2342      H2358   1.083       .  S
C2343      C2353   1.402       .  A
C2343      C2344   1.412       .  A
C2344      C2350   1.409       .  A
C2344      C2345   1.409       .  A
C2345      C2347   1.413       .  A
C2345      C2346   1.410       .  A
C2346      C2354   1.399       .  A
C2347      C2356   1.401       .  A
C2347      C2348   1.402       .  A
C2348      C2349   1.397       .  A
C2348      H2359   1.084       .  S
C2349      C2350   1.403       .  A
C2349      H2360   1.084       .  S
C2350      C2351   1.398       .  A
C2351      C2352   1.407       .  A
C2351      H2361   1.083       .  S
C2352      C2353   1.406       .  A
C2353      H2362   1.083       .  S
C2354      C2355   1.406       .  A
C2354      H2363   1.084       .  S
C2355      C2356   1.404       .  A
C2356      H2364   1.084       .  S
C2365      C2366   1.399       .  A
C2365      C2370   1.404       .  A
C2365      H2381   1.084       .  S
C2366      C2367   1.403       .  A
C2366      H2382   1.084       .  S
C2367      C2377   1.401       .  A
C2367      C2368   1.412       .  A
C2368      C2374   1.411       .  A
C2368      C2369   1.408       .  A
C2369      C2371   1.411       .  A
C2369      C2370   1.410       .  A
C2370      C2378   1.401       .  A
C2371      C2380   1.398       .  A
C2371      C2372   1.402       .  A
C2372      C2373   1.396       .  A
C2372      H2383   1.084       .  S
C2373      C2374   1.402       .  A
C2373      H2384   1.084       .  S
C2374      C2375   1.397       .  A
C2375      C2376   1.405       .  A
C2375      H2385   1.084       .  S
C2376      C2377   1.406       .  A
C2377      H2386   1.084       .  S
C2378      C2379   1.409       .  A
C2378      H2387   1.082       .  S
C2379      C2380   1.405       .  A
C2380      H2388   1.082       .  S
C2389      C2390   1.397       .  A
C2389      C2394   1.403       .  A
C2389      H2405   1.084       .  S
C2390      C2391   1.402       .  A
C2390      H2406   1.083       .  S
C2391      C2401   1.399       .  A
C2391      C2392   1.411       .  A
C2392      C2398   1.411       .  A
C2392      C2393   1.411       .  A
C2393      C2395   1.410       .  A
C2393      C2394   1.410       .  A
C2394      C2402   1.400       .  A
C2395      C2404   1.403       .  A
C2395      C2396   1.404       .  A
C2396      C2397   1.399       .  A
C2396      H2407   1.083       .  S
C2397      C2398   1.404       .  A
C2397      H2408   1.084       .  S
C2398      C2399   1.403       .  A
C2399      C2400   1.408       .  A
C2399      H2409   1.084       .  S
C2400      C2401   1.406       .  A
C2401      H2410   1.084       .  S
C2402      C2403   1.408       .  A
C2402      H2411   1.082       .  S
C2403      C2404   1.409       .  A
C2404      H2412   1.082       .  S
C2413      C2414   1.394       .  A
C2413      C2418   1.401       .  A
C2413      H2429   1.084       .  S
C2414      C2415   1.401       .  A
C2414      H2430   1.084       .  S
C2415      C2425   1.396       .  A
C2415      C2416   1.411       .  A
C2416      C2422   1.410       .  A
C2416      C2417   1.409       .  A
C2417      C2419   1.412       .  A
C2417      C2418   1.410       .  A
C2418      C2426   1.394       .  A
C2419      C2428   1.406       .  A
C2419      C2420   1.404       .  A
C2420      C2421   1.401       .  A
C2420      H2431   1.084       .  S
C2421      C2422   1.405       .  A
C2421      H2432   1.084       .  S
C2422      C2423   1.405       .  A
C2423      C2424   1.411       .  A
C2423      H2433   1.083       .  S
C2424      C2425   1.404       .  A
C2425      H2434   1.082       .  S
C2426      C2427   1.404       .  A
C2426      H2435   1.084       .  S
C2427      C2428   1.408       .  A
C2428      H2436   1.084       .  S
C2437      C2438   1.399       .  A
C2437      C2442   1.403       .  A
C2437      H2453   1.083       .  S
C2438      C2439   1.404       .  A
C2438      H2454   1.084       .  S
C2439      C2449   1.403       .  A
C2439      C2440   1.411       .  A
C2440      C2446   1.411       .  A
C2440      C2441   1.412       .  A
C2441      C2443   1.412       .  A
C2441      C2442   1.411       .  A
C2442      C2450   1.402       .  A
C2443      C2452   1.403       .  A
C2443      C2444   1.403       .  A
C2444      C2445   1.399       .  A
C2444      H2455   1.084       .  S
C2445      C2446   1.404       .  A
C2445      H2456   1.084       .  S
C2446      C2447   1.403       .  A
C2447      C2448   1.407       .  A
C2447      H2457   1.083       .  S
C2448      C2449   1.408       .  A
C2449      H2458   1.083       .  S
C2450      C2451   1.408       .  A
C2450      H2459   1.084       .  S
C2451      C2452   1.407       .  A
C2452      H2460   1.084       .  S
C2461      C2462   1.396       .  A
C2461      C2466   1.403       .  A
C2461      H2477   1.084       .  S
C2462      C2463   1.402       .  A
C2462      H2478   1.083       .  S
C2463      C2473   1.400       .  A
C2463      C2464   1.411       .  A
C2464      C2470   1.411       .  A
C2464      C2465   1.412       .  A
C2465      C2467   1.411       .  A
C2465      C2466   1.409       .  A
C2466      C2474   1.399       .  A
C2467      C2476   1.408       .  A
C2467      C2468   1.405       .  A
C2468      C2469   1.401       .  A
C2468      H2479   1.083       .  S
C2469      C2470   1.404       .  A
C2469      H2480   1.084       .  S
C2470      C2471   1.405       .  A
C2471      C2472   1.409       .  A
C2471      H2481   1.084       .  S
C2472      C2473   1.406       .  A
C2473      H2482   1.084       .  S
C2474      C2475   1.409       .  A
C2474      H2483   1.081       .  S
C2475      C2476   1.410       .  A
C2476      H2484   1.082       .  S
C2485      C2486   1.400       .  A
C2485      C2490   1.404       .  A
C2485      H2501   1.083       .  S
C2486      C2487   1.403       .  A
C2486      H2502   1.084       .  S
C2487      C2497   1.404       .  A
C2487      C2488   1.411       .  A
C2488      C2494   1.411       .  A
C2488      C2489   1.413       .  A
C2489      C2491   1.410       .  A
C2489      C2490   1.411       .  A
C2490      C2498   1.406       .  A
C2491      C2500   1.403       .  A
C2491      C2492   1.404       .  A
C2492      C2493   1.399       .  A
C2492      H2503   1.084       .  S
C2493      C2494   1.403       .  A
C2493      H2504   1.083       .  S
C2494      C2495   1.404       .  A
C2495      C2496   1.409       .  A
C2495      H2505   1.084       .  S
C2496      C2497   1.408       .  A
C2497      H2506   1.084       .  S
C2498      C2499   1.410       .  A
C2498      H2507   1.082       .  S
C2499      C2500   1.411       .  A
C2500      H2508   1.081       .  S
C2509      C2510   1.399       .  A
C2509      C2514   1.404       .  A
C2509      H2525   1.083       .  S
C2510      C2511   1.404       .  A
C2510      H2526   1.084       .  S
C2511      C2521   1.404       .  A
C2511      C2512   1.412       .  A
C2512      C2518   1.409       .  A
C2512      C2513   1.411       .  A
C2513      C2515   1.412   1_554  A
C2513      C2514   1.410       .  A
C2514      C2522   1.403   1_554  A
C2515      C2524   1.402       .  A
C2515      C2516   1.403   1_556  A
C2516      C2517   1.397       .  A
C2516      H2527   1.084   1_554  S
C2517      C2518   1.403       .  A
C2517      H2528   1.083       .  S
C2518      C2519   1.399       .  A
C2519      C2520   1.409       .  A
C2519      H2529   1.081       .  S
C2520      C2521   1.409       .  A
C2521      H2530   1.083       .  S
C2522      C2523   1.408       .  A
C2522      H2531   1.083       .  S
C2523      C2524   1.406       .  A
C2524      H2532   1.085       .  S
C2533      C2534   1.401   1_554  A
C2533      C2538   1.405       .  A
C2533      H2549   1.083       .  S
C2534      C2535   1.404       .  A
C2534      H2550   1.084       .  S
C2535      C2545   1.406       .  A
C2535      C2536   1.412       .  A
C2536      C2542   1.411       .  A
C2536      C2537   1.413   1_556  A
C2537      C2539   1.410       .  A
C2537      C2538   1.411       .  A
C2538      C2546   1.406       .  A
C2539      C2548   1.402       .  A
C2539      C2540   1.403       .  A
C2540      C2541   1.398   1_554  A
C2540      H2551   1.084       .  S
C2541      C2542   1.403       .  A
C2541      H2552   1.083       .  S
C2542      C2543   1.401       .  A
C2543      C2544   1.408       .  A
C2543      H2553   1.084       .  S
C2544      C2545   1.409       .  A
C2545      H2554   1.084       .  S
C2546      C2547   1.410       .  A
C2546      H2555   1.082       .  S
C2547      C2548   1.408       .  A
C2548      H2556   1.082       .  S
C2557      C2558   1.396       .  A
C2557      C2562   1.403       .  A
C2557      H2573   1.084       .  S
C2558      C2559   1.402       .  A
C2558      H2574   1.084       .  S
C2559      C2569   1.400       .  A
C2559      C2560   1.412       .  A
C2560      C2566   1.411       .  A
C2560      C2561   1.411       .  A
C2561      C2563   1.412       .  A
C2561      C2562   1.410       .  A
C2562      C2570   1.398       .  A
C2563      C2572   1.405       .  A
C2563      C2564   1.404       .  A
C2564      C2565   1.400       .  A
C2564      H2575   1.083       .  S
C2565      C2566   1.404       .  A
C2565      H2576   1.084       .  S
C2566      C2567   1.404       .  A
C2567      C2568   1.408       .  A
C2567      H2577   1.084       .  S
C2568      C2569   1.405       .  A
C2569      H2578   1.084       .  S
C2570      C2571   1.406       .  A
C2570      H2579   1.083       .  S
C2571      C2572   1.407       .  A
C2572      H2580   1.083       .  S
C2581      C2582   1.399       .  A
C2581      C2586   1.403       .  A
C2581      H2597   1.084       .  S
C2582      C2583   1.404       .  A
C2582      H2598   1.083       .  S
C2583      C2593   1.403       .  A
C2583      C2584   1.411       .  A
C2584      C2590   1.412       .  A
C2584      C2585   1.413       .  A
C2585      C2587   1.412       .  A
C2585      C2586   1.411       .  A
C2586      C2594   1.403       .  A
C2587      C2596   1.406       .  A
C2587      C2588   1.404       .  A
C2588      C2589   1.401       .  A
C2588      H2599   1.084       .  S
C2589      C2590   1.404       .  A
C2589      H2600   1.083       .  S
C2590      C2591   1.406       .  A
C2591      C2592   1.406       .  A
C2591      H2601   1.084       .  S
C2592      C2593   1.407       .  A
C2593      H2602   1.084       .  S
C2594      C2595   1.406       .  A
C2594      H2603   1.084       .  S
C2595      C2596   1.408       .  A
C2596      H2604   1.084       .  S
C2605      C2606   1.399       .  A
C2605      C2610   1.403       .  A
C2605      H2621   1.083       .  S
C2606      C2607   1.404       .  A
C2606      H2622   1.084       .  S
C2607      C2617   1.402       .  A
C2607      C2608   1.410       .  A
C2608      C2614   1.411       .  A
C2608      C2609   1.410       .  A
C2609      C2611   1.410       .  A
C2609      C2610   1.413       .  A
C2610      C2618   1.404       .  A
C2611      C2620   1.398       .  A
C2611      C2612   1.403       .  A
C2612      C2613   1.396       .  A
C2612      H2623   1.084       .  S
C2613      C2614   1.403       .  A
C2613      H2624   1.084       .  S
C2614      C2615   1.400       .  A
C2615      C2616   1.407       .  A
C2615      H2625   1.083       .  S
C2616      C2617   1.407       .  A
C2617      H2626   1.083       .  S
C2618      C2619   1.405       .  A
C2618      H2627   1.084       .  S
C2619      C2620   1.405       .  A
C2620      H2628   1.084       .  S
C2629      C2630   1.399       .  A
C2629      C2634   1.403       .  A
C2629      H2645   1.083       .  S
C2630      C2631   1.403       .  A
C2630      H2646   1.084       .  S
C2631      C2641   1.402       .  A
C2631      C2632   1.411       .  A
C2632      C2638   1.412       .  A
C2632      C2633   1.411       .  A
C2633      C2635   1.411       .  A
C2633      C2634   1.412       .  A
C2634      C2642   1.403       .  A
C2635      C2644   1.402       .  A
C2635      C2636   1.404       .  A
C2636      C2637   1.399       .  A
C2636      H2647   1.084       .  S
C2637      C2638   1.403       .  A
C2637      H2648   1.083       .  S
C2638      C2639   1.403       .  A
C2639      C2640   1.405       .  A
C2639      H2649   1.084       .  S
C2640      C2641   1.405       .  A
C2641      H2650   1.084       .  S
C2642      C2643   1.404       .  A
C2642      H2651   1.084       .  S
C2643      C2644   1.407       .  A
C2644      H2652   1.084       .  S
C2653      C2654   1.399       .  A
C2653      C2658   1.403       .  A
C2653      H2669   1.084       .  S
C2654      C2655   1.403       .  A
C2654      H2670   1.083       .  S
C2655      C2665   1.403       .  A
C2655      C2656   1.412       .  A
C2656      C2662   1.411       .  A
C2656      C2657   1.411       .  A
C2657      C2659   1.413       .  A
C2657      C2658   1.411       .  A
C2658      C2666   1.401       .  A
C2659      C2668   1.403       .  A
C2659      C2660   1.403       .  A
C2660      C2661   1.399       .  A
C2660      H2671   1.083       .  S
C2661      C2662   1.404       .  A
C2661      H2672   1.084       .  S
C2662      C2663   1.402       .  A
C2663      C2664   1.407       .  A
C2663      H2673   1.084       .  S
C2664      C2665   1.405       .  A
C2665      H2674   1.084       .  S
C2666      C2667   1.405       .  A
C2666      H2675   1.084       .  S
C2667      C2668   1.404       .  A
C2668      H2676   1.084       .  S
C2677      C2678   1.402       .  A
C2677      C2682   1.405       .  A
C2677      H2693   1.084       .  S
C2678      C2679   1.404       .  A
C2678      H2694   1.083       .  S
C2679      C2689   1.407       .  A
C2679      C2680   1.412       .  A
C2680      C2686   1.411       .  A
C2680      C2681   1.413       .  A
C2681      C2683   1.411       .  A
C2681      C2682   1.412       .  A
C2682      C2690   1.408       .  A
C2683      C2692   1.400       .  A
C2683      C2684   1.403       .  A
C2684      C2685   1.397       .  A
C2684      H2695   1.084       .  S
C2685      C2686   1.402       .  A
C2685      H2696   1.084       .  S
C2686      C2687   1.400       .  A
C2687      C2688   1.405       .  A
C2687      H2697   1.084       .  S
C2688      C2689   1.407       .  A
C2689      H2698   1.084       .  S
C2690      C2691   1.407       .  A
C2690      H2699   1.084       .  S
C2691      C2692   1.406       .  A
C2692      H2700   1.084       .  S
C2701      C2702   1.398       .  A
C2701      C2706   1.403       .  A
C2701      H2717   1.084       .  S
C2702      C2703   1.403       .  A
C2702      H2718   1.083       .  S
C2703      C2713   1.402       .  A
C2703      C2704   1.412       .  A
C2704      C2710   1.412       .  A
C2704      C2705   1.410       .  A
C2705      C2707   1.412       .  A
C2705      C2706   1.411       .  A
C2706      C2714   1.401       .  A
C2707      C2716   1.402       .  A
C2707      C2708   1.403       .  A
C2708      C2709   1.398       .  A
C2708      H2719   1.083       .  S
C2709      C2710   1.403       .  A
C2709      H2720   1.084       .  S
C2710      C2711   1.401       .  A
C2711      C2712   1.404       .  A
C2711      H2721   1.084       .  S
C2712      C2713   1.404       .  A
C2713      H2722   1.084       .  S
C2714      C2715   1.405       .  A
C2714      H2723   1.084       .  S
C2715      C2716   1.404       .  A
C2716      H2724   1.084       .  S
C2725      C2726   1.400       .  A
C2725      C2730   1.404       .  A
C2725      H2741   1.083       .  S
C2726      C2727   1.403       .  A
C2726      H2742   1.084       .  S
C2727      C2737   1.405       .  A
C2727      C2728   1.413       .  A
C2728      C2734   1.411       .  A
C2728      C2729   1.412       .  A
C2729      C2731   1.412       .  A
C2729      C2730   1.410       .  A
C2730      C2738   1.403       .  A
C2731      C2740   1.404       .  A
C2731      C2732   1.403       .  A
C2732      C2733   1.399       .  A
C2732      H2743   1.084       .  S
C2733      C2734   1.403       .  A
C2733      H2744   1.084       .  S
C2734      C2735   1.401       .  A
C2735      C2736   1.405       .  A
C2735      H2745   1.084       .  S
C2736      C2737   1.404       .  A
C2737      H2746   1.084       .  S
C2738      C2739   1.408       .  A
C2738      H2747   1.083       .  S
C2739      C2740   1.407       .  A
C2740      H2748   1.083       .  S
C2749      C2750   1.397       .  A
C2749      C2754   1.402       .  A
C2749      H2765   1.084       .  S
C2750      C2751   1.403       .  A
C2750      H2766   1.084       .  S
C2751      C2761   1.399       .  A
C2751      C2752   1.411       .  A
C2752      C2758   1.412       .  A
C2752      C2753   1.411       .  A
C2753      C2755   1.412       .  A
C2753      C2754   1.411       .  A
C2754      C2762   1.399       .  A
C2755      C2764   1.405       .  A
C2755      C2756   1.404       .  A
C2756      C2757   1.400       .  A
C2756      H2767   1.084       .  S
C2757      C2758   1.404       .  A
C2757      H2768   1.083       .  S
C2758      C2759   1.405       .  A
C2759      C2760   1.407       .  A
C2759      H2769   1.084       .  S
C2760      C2761   1.405       .  A
C2761      H2770   1.084       .  S
C2762      C2763   1.404       .  A
C2762      H2771   1.084       .  S
C2763      C2764   1.406       .  A
C2764      H2772   1.084       .  S
C2773      C2774   1.399       .  A
C2773      C2778   1.404       .  A
C2773      H2789   1.084       .  S
C2774      C2775   1.403       .  A
C2774      H2790   1.083       .  S
C2775      C2785   1.405       .  A
C2775      C2776   1.413       .  A
C2776      C2782   1.411       .  A
C2776      C2777   1.413       .  A
C2777      C2779   1.412       .  A
C2777      C2778   1.411       .  A
C2778      C2786   1.403       .  A
C2779      C2788   1.404       .  A
C2779      C2780   1.404       .  A
C2780      C2781   1.400       .  A
C2780      H2791   1.084       .  S
C2781      C2782   1.404       .  A
C2781      H2792   1.084       .  S
C2782      C2783   1.403       .  A
C2783      C2784   1.406       .  A
C2783      H2793   1.084       .  S
C2784      C2785   1.405       .  A
C2785      H2794   1.084       .  S
C2786      C2787   1.406       .  A
C2786      H2795   1.084       .  S
C2787      C2788   1.407       .  A
C2788      H2796   1.084       .  S
C2797      C2798   1.400       .  A
C2797      C2802   1.404       .  A
C2797      H2813   1.084       .  S
C2798      C2799   1.404       .  A
C2798      H2814   1.084       .  S
C2799      C2809   1.406       .  A
C2799      C2800   1.413       .  A
C2800      C2806   1.411       .  A
C2800      C2801   1.412       .  A
C2801      C2803   1.412       .  A
C2801      C2802   1.411       .  A
C2802      C2810   1.404       .  A
C2803      C2812   1.402       .  A
C2803      C2804   1.403       .  A
C2804      C2805   1.398       .  A
C2804      H2815   1.083       .  S
C2805      C2806   1.403       .  A
C2805      H2816   1.084       .  S
C2806      C2807   1.400       .  A
C2807      C2808   1.403       .  A
C2807      H2817   1.085       .  S
C2808      C2809   1.404       .  A
C2809      H2818   1.084       .  S
C2810      C2811   1.408       .  A
C2810      H2819   1.083       .  S
C2811      C2812   1.406       .  A
C2812      H2820   1.083       .  S
C2821      C2822   1.397       .  A
C2821      C2826   1.402       .  A
C2821      H2837   1.084       .  S
C2822      C2823   1.403       .  A
C2822      H2838   1.084       .  S
C2823      C2833   1.398       .  A
C2823      C2824   1.410       .  A
C2824      C2830   1.413       .  A
C2824      C2825   1.411       .  A
C2825      C2827   1.411       .  A
C2825      C2826   1.412       .  A
C2826      C2834   1.400       .  A
C2827      C2836   1.404       .  A
C2827      C2828   1.404       .  A
C2828      C2829   1.401       .  A
C2828      H2839   1.084       .  S
C2829      C2830   1.404       .  A
C2829      H2840   1.083       .  S
C2830      C2831   1.407       .  A
C2831      C2832   1.406       .  A
C2831      H2841   1.084       .  S
C2832      C2833   1.405       .  A
C2833      H2842   1.084       .  S
C2834      C2835   1.403       .  A
C2834      H2843   1.084       .  S
C2835      C2836   1.407       .  A
C2836      H2844   1.084       .  S
C2845      C2846   1.398       .  A
C2845      C2850   1.403       .  A
C2845      H2861   1.084       .  S
C2846      C2847   1.403       .  A
C2846      H2862   1.083       .  S
C2847      C2857   1.402       .  A
C2847      C2848   1.411       .  A
C2848      C2854   1.412       .  A
C2848      C2849   1.413       .  A
C2849      C2851   1.411       .  A
C2849      C2850   1.412       .  A
C2850      C2858   1.403       .  A
C2851      C2860   1.405       .  A
C2851      C2852   1.404       .  A
C2852      C2853   1.400       .  A
C2852      H2863   1.083       .  S
C2853      C2854   1.404       .  A
C2853      H2864   1.084       .  S
C2854      C2855   1.405       .  A
C2855      C2856   1.407       .  A
C2855      H2865   1.084       .  S
C2856      C2857   1.407       .  A
C2857      H2866   1.083       .  S
C2858      C2859   1.406       .  A
C2858      H2867   1.084       .  S
C2859      C2860   1.407       .  A
C2860      H2868   1.084       .  S
C2869      C2870   1.400       .  A
C2869      C2874   1.404       .  A
C2869      H2885   1.084       .  S
C2870      C2871   1.404       .  A
C2870      H2886   1.083       .  S
C2871      C2881   1.404       .  A
C2871      C2872   1.411       .  A
C2872      C2878   1.410       .  A
C2872      C2873   1.410       .  A
C2873      C2875   1.411       .  A
C2873      C2874   1.413       .  A
C2874      C2882   1.404       .  A
C2875      C2884   1.398       .  A
C2875      C2876   1.402       .  A
C2876      C2877   1.396       .  A
C2876      H2887   1.084       .  S
C2877      C2878   1.403       .  A
C2877      H2888   1.084       .  S
C2878      C2879   1.398       .  A
C2879      C2880   1.406       .  A
C2879      H2889   1.082       .  S
C2880      C2881   1.407       .  A
C2881      H2890   1.083       .  S
C2882      C2883   1.404       .  A
C2882      H2891   1.084       .  S
C2883      C2884   1.402       .  A
C2884      H2892   1.085       .  S
C2893      C2894   1.398       .  A
C2893      C2898   1.403       .  A
C2893      H2909   1.084       .  S
C2894      C2895   1.403       .  A
C2894      H2910   1.084       .  S
C2895      C2905   1.401       .  A
C2895      C2896   1.412       .  A
C2896      C2902   1.411       .  A
C2896      C2897   1.409       .  A
C2897      C2899   1.412       .  A
C2897      C2898   1.411       .  A
C2898      C2906   1.400       .  A
C2899      C2908   1.400       .  A
C2899      C2900   1.403       .  A
C2900      C2901   1.397       .  A
C2900      H2911   1.084       .  S
C2901      C2902   1.403       .  A
C2901      H2912   1.084       .  S
C2902      C2903   1.399       .  A
C2903      C2904   1.403       .  A
C2903      H2913   1.084       .  S
C2904      C2905   1.403       .  A
C2905      H2914   1.084       .  S
C2906      C2907   1.405       .  A
C2906      H2915   1.084       .  S
C2907      C2908   1.405       .  A
C2908      H2916   1.084       .  S
C2917      C2918   1.401       .  A
C2917      C2922   1.404       .  A
C2917      H2933   1.084       .  S
C2918      C2919   1.404       .  A
C2918      H2934   1.083       .  S
C2919      C2929   1.408       .  A
C2919      C2920   1.413       .  A
C2920      C2926   1.410       .  A
C2920      C2921   1.413       .  A
C2921      C2923   1.412       .  A
C2921      C2922   1.411       .  A
C2922      C2930   1.405       .  A
C2923      C2932   1.404       .  A
C2923      C2924   1.403       .  A
C2924      C2925   1.399       .  A
C2924      H2935   1.083       .  S
C2925      C2926   1.404       .  A
C2925      H2936   1.084       .  S
C2926      C2927   1.401       .  A
C2927      C2928   1.407       .  A
C2927      H2937   1.084       .  S
C2928      C2929   1.407       .  A
C2929      H2938   1.084       .  S
C2930      C2931   1.407       .  A
C2930      H2939   1.084       .  S
C2931      C2932   1.407       .  A
C2932      H2940   1.084       .  S
C2941      C2942   1.401       .  A
C2941      C2946   1.404       .  A
C2941      H2957   1.083       .  S
C2942      C2943   1.404       .  A
C2942      H2958   1.083       .  S
C2943      C2953   1.406       .  A
C2943      C2944   1.413       .  A
C2944      C2950   1.411       .  A
C2944      C2945   1.412       .  A
C2945      C2947   1.412       .  A
C2945      C2946   1.411       .  A
C2946      C2954   1.405       .  A
C2947      C2956   1.401       .  A
C2947      C2948   1.403       .  A
C2948      C2949   1.397       .  A
C2948      H2959   1.084       .  S
C2949      C2950   1.403       .  A
C2949      H2960   1.084       .  S
C2950      C2951   1.400       .  A
C2951      C2952   1.405       .  A
C2951      H2961   1.084       .  S
C2952      C2953   1.406       .  A
C2953      H2962   1.084       .  S
C2954      C2955   1.407       .  A
C2954      H2963   1.084       .  S
C2955      C2956   1.404       .  A
C2956      H2964   1.084       .  S
C2965      C2966   1.399       .  A
C2965      C2970   1.404       .  A
C2965      H2981   1.084       .  S
C2966      C2967   1.404       .  A
C2966      H2982   1.084       .  S
C2967      C2977   1.405       .  A
C2967      C2968   1.412       .  A
C2968      C2974   1.412       .  A
C2968      C2969   1.413       .  A
C2969      C2971   1.412       .  A
C2969      C2970   1.411       .  A
C2970      C2978   1.403       .  A
C2971      C2980   1.404       .  A
C2971      C2972   1.403       .  A
C2972      C2973   1.400       .  A
C2972      H2983   1.084       .  S
C2973      C2974   1.404       .  A
C2973      H2984   1.083       .  S
C2974      C2975   1.405       .  A
C2975      C2976   1.406       .  A
C2975      H2985   1.084       .  S
C2976      C2977   1.407       .  A
C2977      H2986   1.084       .  S
C2978      C2979   1.407       .  A
C2978      H2987   1.083       .  S
C2979      C2980   1.407       .  A
C2980      H2988   1.083       .  S
C2989      C2990   1.400       .  A
C2989      C2994   1.404       .  A
C2989      H3005   1.084       .  S
C2990      C2991   1.404       .  A
C2990      H3006   1.083       .  S
C2991      C3001   1.404       .  A
C2991      C2992   1.411       .  A
C2992      C2998   1.411       .  A
C2992      C2993   1.412       .  A
C2993      C2995   1.411       .  A
C2993      C2994   1.412       .  A
C2994      C3002   1.404       .  A
C2995      C3004   1.401       .  A
C2995      C2996   1.403       .  A
C2996      C2997   1.398       .  A
C2996      H3007   1.084       .  S
C2997      C2998   1.403       .  A
C2997      H3008   1.084       .  S
C2998      C2999   1.401       .  A
C2999      C3000   1.406       .  A
C2999      H3009   1.083       .  S
C3000      C3001   1.409       .  A
C3001      H3010   1.083       .  S
C3002      C3003   1.407       .  A
C3002      H3011   1.084       .  S
C3003      C3004   1.405       .  A
C3004      H3012   1.084       .  S
C3013      C3014   1.397       .  A
C3013      C3018   1.403       .  A
C3013      H3029   1.084       .  S
C3014      C3015   1.402       .  A
C3014      H3030   1.084       .  S
C3015      C3025   1.398       .  A
C3015      C3016   1.411       .  A
C3016      C3022   1.411       .  A
C3016      C3017   1.408       .  A
C3017      C3019   1.412       .  A
C3017      C3018   1.412       .  A
C3018      C3026   1.400       .  A
C3019      C3028   1.400       .  A
C3019      C3020   1.403       .  A
C3020      C3021   1.398       .  A
C3020      H3031   1.084       .  S
C3021      C3022   1.403       .  A
C3021      H3032   1.083       .  S
C3022      C3023   1.400       .  A
C3023      C3024   1.405       .  A
C3023      H3033   1.084       .  S
C3024      C3025   1.403       .  A
C3025      H3034   1.084       .  S
C3026      C3027   1.404       .  A
C3026      H3035   1.084       .  S
C3027      C3028   1.403       .  A
C3028      H3036   1.084       .  S
C3037      C3038   1.397       .  A
C3037      C3042   1.403       .  A
C3037      H3053   1.084       .  S
C3038      C3039   1.402       .  A
C3038      H3054   1.084       .  S
C3039      C3049   1.401       .  A
C3039      C3040   1.413       .  A
C3040      C3046   1.411       .  A
C3040      C3041   1.409       .  A
C3041      C3043   1.412       .  A
C3041      C3042   1.410       .  A
C3042      C3050   1.399       .  A
C3043      C3052   1.401       .  A
C3043      C3044   1.403       .  A
C3044      C3045   1.398       .  A
C3044      H3055   1.084       .  S
C3045      C3046   1.403       .  A
C3045      H3056   1.084       .  S
C3046      C3047   1.399       .  A
C3047      C3048   1.404       .  A
C3047      H3057   1.085       .  S
C3048      C3049   1.401       .  A
C3049      H3058   1.084       .  S
C3050      C3051   1.406       .  A
C3050      H3059   1.083       .  S
C3051      C3052   1.406       .  A
C3052      H3060   1.083       .  S
C3061      C3062   1.397       .  A
C3061      C3066   1.402       .  A
C3061      H3077   1.083       .  S
C3062      C3063   1.403       .  A
C3062      H3078   1.084       .  S
C3063      C3073   1.400       .  A
C3063      C3064   1.410       .  A
C3064      C3070   1.411       .  A
C3064      C3065   1.413       .  A
C3065      C3067   1.412       .  A
C3065      C3066   1.412       .  A
C3066      C3074   1.401       .  A
C3067      C3076   1.407       .  A
C3067      C3068   1.405       .  A
C3068      C3069   1.402       .  A
C3068      H3079   1.084       .  S
C3069      C3070   1.405       .  A
C3069      H3080   1.083       .  S
C3070      C3071   1.408       .  A
C3071      C3072   1.411       .  A
C3071      H3081   1.083       .  S
C3072      C3073   1.407       .  A
C3073      H3082   1.082       .  S
C3074      C3075   1.402       .  A
C3074      H3083   1.085       .  S
C3075      C3076   1.406       .  A
C3076      H3084   1.084       .  S
C3085      C3086   1.402       .  A
C3085      C3090   1.405       .  A
C3085      H3101   1.083       .  S
C3086      C3087   1.404       .  A
C3086      H3102   1.084       .  S
C3087      C3097   1.409       .  A
C3087      C3088   1.414       .  A
C3088      C3094   1.411       .  A
C3088      C3089   1.415       .  A
C3089      C3091   1.412       .  A
C3089      C3090   1.410       .  A
C3090      C3098   1.406       .  A
C3091      C3100   1.406       .  A
C3091      C3092   1.403       .  A
C3092      C3093   1.399       .  A
C3092      H3103   1.084       .  S
C3093      C3094   1.403       .  A
C3093      H3104   1.083       .  S
C3094      C3095   1.403       .  A
C3095      C3096   1.404       .  A
C3095      H3105   1.084       .  S
C3096      C3097   1.406       .  A
C3097      H3106   1.084       .  S
C3098      C3099   1.411       .  A
C3098      H3107   1.083       .  S
C3099      C3100   1.407       .  A
C3100      H3108   1.083       .  S
C3109      C3110   1.400       .  A
C3109      C3114   1.404       .  A
C3109      H3125   1.084       .  S
C3110      C3111   1.404       .  A
C3110      H3126   1.084       .  S
C3111      C3121   1.406       .  A
C3111      C3112   1.413       .  A
C3112      C3118   1.411       .  A
C3112      C3113   1.413       .  A
C3113      C3115   1.413       .  A
C3113      C3114   1.410       .  A
C3114      C3122   1.402       .  A
C3115      C3124   1.406       .  A
C3115      C3116   1.403       .  A
C3116      C3117   1.399       .  A
C3116      H3127   1.083       .  S
C3117      C3118   1.403       .  A
C3117      H3128   1.084       .  S
C3118      C3119   1.402       .  A
C3119      C3120   1.405       .  A
C3119      H3129   1.084       .  S
C3120      C3121   1.406       .  A
C3121      H3130   1.084       .  S
C3122      C3123   1.407       .  A
C3122      H3131   1.084       .  S
C3123      C3124   1.405       .  A
C3124      H3132   1.084       .  S
C3133      C3134   1.397       .  A
C3133      C3138   1.403       .  A
C3133      H3149   1.084       .  S
C3134      C3135   1.403       .  A
C3134      H3150   1.084       .  S
C3135      C3145   1.402       .  A
C3135      C3136   1.411       .  A
C3136      C3142   1.410       .  A
C3136      C3137   1.411       .  A
C3137      C3139   1.413       .  A
C3137      C3138   1.411       .  A
C3138      C3146   1.399       .  A
C3139      C3148   1.405       .  A
C3139      C3140   1.403       .  A
C3140      C3141   1.400       .  A
C3140      H3151   1.083       .  S
C3141      C3142   1.404       .  A
C3141      H3152   1.084       .  S
C3142      C3143   1.403       .  A
C3143      C3144   1.410       .  A
C3143      H3153   1.082       .  S
C3144      C3145   1.408       .  A
C3145      H3154   1.082       .  S
C3146      C3147   1.404       .  A
C3146      H3155   1.084       .  S
C3147      C3148   1.404       .  A
C3148      H3156   1.084       .  S
C3157      C3158   1.400       .  A
C3157      C3162   1.404       .  A
C3157      H3173   1.084       .  S
C3158      C3159   1.404       .  A
C3158      H3174   1.084       .  S
C3159      C3169   1.404       .  A
C3159      C3160   1.411       .  A
C3160      C3166   1.412       .  A
C3160      C3161   1.413       .  A
C3161      C3163   1.410       .  A
C3161      C3162   1.412       .  A
C3162      C3170   1.406       .  A
C3163      C3172   1.403       .  A
C3163      C3164   1.404       .  A
C3164      C3165   1.399       .  A
C3164      H3175   1.083       .  S
C3165      C3166   1.403       .  A
C3165      H3176   1.084       .  S
C3166      C3167   1.404       .  A
C3167      C3168   1.405       .  A
C3167      H3177   1.084       .  S
C3168      C3169   1.407       .  A
C3169      H3178   1.084       .  S
C3170      C3171   1.407       .  A
C3170      H3179   1.084       .  S
C3171      C3172   1.408       .  A
C3172      H3180   1.084       .  S
C3181      C3182   1.399       .  A
C3181      C3186   1.404       .  A
C3181      H3197   1.084       .  S
C3182      C3183   1.403       .  A
C3182      H3198   1.083       .  S
C3183      C3193   1.404       .  A
C3183      C3184   1.413       .  A
C3184      C3190   1.410       .  A
C3184      C3185   1.412       .  A
C3185      C3187   1.412       .  A
C3185      C3186   1.410       .  A
C3186      C3194   1.402       .  A
C3187      C3196   1.405       .  A
C3187      C3188   1.404       .  A
C3188      C3189   1.400       .  A
C3188      H3199   1.084       .  S
C3189      C3190   1.404       .  A
C3189      H3200   1.084       .  S
C3190      C3191   1.402       .  A
C3191      C3192   1.407       .  A
C3191      H3201   1.084       .  S
C3192      C3193   1.404       .  A
C3193      H3202   1.084       .  S
C3194      C3195   1.407       .  A
C3194      H3203   1.083       .  S
C3195      C3196   1.407       .  A
C3196      H3204   1.084       .  S
C3205      C3206   1.398       .  A
C3205      C3210   1.403       .  A
C3205      H3221   1.084       .  S
C3206      C3207   1.403       .  A
C3206      H3222   1.084       .  S
C3207      C3217   1.401       .  A
C3207      C3208   1.412       .  A
C3208      C3214   1.411       .  A
C3208      C3209   1.409       .  A
C3209      C3211   1.412       .  A
C3209      C3210   1.411       .  A
C3210      C3218   1.400       .  A
C3211      C3220   1.402       .  A
C3211      C3212   1.403       .  A
C3212      C3213   1.398       .  A
C3212      H3223   1.083       .  S
C3213      C3214   1.403       .  A
C3213      H3224   1.084       .  S
C3214      C3215   1.400       .  A
C3215      C3216   1.404       .  A
C3215      H3225   1.084       .  S
C3216      C3217   1.404       .  A
C3217      H3226   1.084       .  S
C3218      C3219   1.405       .  A
C3218      H3227   1.084       .  S
C3219      C3220   1.406       .  A
C3220      H3228   1.084       .  S
C3229      C3230   1.401       .  A
C3229      C3234   1.404       .  A
C3229      H3245   1.084       .  S
C3230      C3231   1.404       .  A
C3230      H3246   1.083       .  S
C3231      C3241   1.406       .  A
C3231      C3232   1.413       .  A
C3232      C3238   1.410       .  A
C3232      C3233   1.411       .  A
C3233      C3235   1.413       .  A
C3233      C3234   1.411       .  A
C3234      C3242   1.404       .  A
C3235      C3244   1.401       .  A
C3235      C3236   1.402       .  A
C3236      C3237   1.397       .  A
C3236      H3247   1.084       .  S
C3237      C3238   1.403       .  A
C3237      H3248   1.083       .  S
C3238      C3239   1.399       .  A
C3239      C3240   1.405       .  A
C3239      H3249   1.084       .  S
C3240      C3241   1.406       .  A
C3241      H3250   1.084       .  S
C3242      C3243   1.407       .  A
C3242      H3251   1.084       .  S
C3243      C3244   1.404       .  A
C3244      H3252   1.085       .  S
C3253      C3254   1.400       .  A
C3253      C3258   1.403       .  A
C3253      H3269   1.084       .  S
C3254      C3255   1.404       .  A
C3254      H3270   1.084       .  S
C3255      C3265   1.402       .  A
C3255      C3256   1.411       .  A
C3256      C3262   1.412       .  A
C3256      C3257   1.409       .  A
C3257      C3259   1.411       .  A
C3257      C3258   1.413       .  A
C3258      C3266   1.404       .  A
C3259      C3268   1.397       .  A
C3259      C3260   1.402       .  A
C3260      C3261   1.396       .  A
C3260      H3271   1.084       .  S
C3261      C3262   1.402       .  A
C3261      H3272   1.084       .  S
C3262      C3263   1.400       .  A
C3263      C3264   1.404       .  A
C3263      H3273   1.084       .  S
C3264      C3265   1.407       .  A
C3265      H3274   1.084       .  S
C3266      C3267   1.402       .  A
C3266      H3275   1.084       .  S
C3267      C3268   1.402       .  A
C3268      H3276   1.085       .  S
C3277      C3278   1.401       .  A
C3277      C3282   1.404       .  A
C3277      H3293   1.083       .  S
C3278      C3279   1.404       .  A
C3278      H3294   1.084       .  S
C3279      C3289   1.405       .  A
C3279      C3280   1.412       .  A
C3280      C3286   1.411       .  A
C3280      C3281   1.411       .  A
C3281      C3283   1.411       .  A
C3281      C3282   1.412       .  A
C3282      C3290   1.405       .  A
C3283      C3292   1.400       .  A
C3283      C3284   1.403       .  A
C3284      C3285   1.397       .  A
C3284      H3295   1.084       .  S
C3285      C3286   1.403       .  A
C3285      H3296   1.084       .  S
C3286      C3287   1.400       .  A
C3287      C3288   1.405       .  A
C3287      H3297   1.084       .  S
C3288      C3289   1.406       .  A
C3289      H3298   1.084       .  S
C3290      C3291   1.407       .  A
C3290      H3299   1.084       .  S
C3291      C3292   1.405       .  A
C3292      H3300   1.084       .  S
C3301      C3302   1.395       .  A
C3301      C3306   1.402       .  A
C3301      H3317   1.084       .  S
C3302      C3303   1.402       .  A
C3302      H3318   1.084       .  S
C3303      C3313   1.397       .  A
C3303      C3304   1.411       .  A
C3304      C3310   1.411       .  A
C3304      C3305   1.407       .  A
C3305      C3307   1.412       .  A
C3305      C3306   1.410       .  A
C3306      C3314   1.396       .  A
C3307      C3316   1.402       .  A
C3307      C3308   1.403       .  A
C3308      C3309   1.398       .  A
C3308      H3319   1.084       .  S
C3309      C3310   1.403       .  A
C3309      H3320   1.084       .  S
C3310      C3311   1.400       .  A
C3311      C3312   1.404       .  A
C3311      H3321   1.084       .  S
C3312      C3313   1.403       .  A
C3313      H3322   1.084       .  S
C3314      C3315   1.404       .  A
C3314      H3323   1.083       .  S
C3315      C3316   1.406       .  A
C3316      H3324   1.084       .  S
C3325      C3326   1.399       .  A
C3325      C3330   1.404       .  A
C3325      H3341   1.084       .  S
C3326      C3327   1.403       .  A
C3326      H3342   1.084       .  S
C3327      C3337   1.402       .  A
C3327      C3328   1.412       .  A
C3328      C3334   1.412       .  A
C3328      C3329   1.411       .  A
C3329      C3331   1.411       .  A
C3329      C3330   1.412       .  A
C3330      C3338   1.403       .  A
C3331      C3340   1.402       .  A
C3331      C3332   1.403       .  A
C3332      C3333   1.399       .  A
C3332      H3343   1.083       .  S
C3333      C3334   1.403       .  A
C3333      H3344   1.084       .  S
C3334      C3335   1.402       .  A
C3335      C3336   1.405       .  A
C3335      H3345   1.084       .  S
C3336      C3337   1.405       .  A
C3337      H3346   1.084       .  S
C3338      C3339   1.407       .  A
C3338      H3347   1.084       .  S
C3339      C3340   1.406       .  A
C3340      H3348   1.084       .  S
C3349      C3350   1.400       .  A
C3349      C3354   1.404       .  A
C3349      H3365   1.083       .  S
C3350      C3351   1.404       .  A
C3350      H3366   1.084       .  S
C3351      C3361   1.406       .  A
C3351      C3352   1.413       .  A
C3352      C3358   1.409       .  A
C3352      C3353   1.408       .  A
C3353      C3355   1.412       .  A
C3353      C3354   1.411       .  A
C3354      C3362   1.403       .  A
C3355      C3364   1.397       .  A
C3355      C3356   1.401       .  A
C3356      C3357   1.394       .  A
C3356      H3367   1.084       .  S
C3357      C3358   1.402       .  A
C3357      H3368   1.084       .  S
C3358      C3359   1.393       .  A
C3359      C3360   1.404       .  A
C3359      H3369   1.083       .  S
C3360      C3361   1.406       .  A
C3361      H3370   1.084       .  S
C3362      C3363   1.406       .  A
C3362      H3371   1.084       .  S
C3363      C3364   1.402       .  A
C3364      H3372   1.084       .  S
C3373      C3374   1.398       .  A
C3373      C3378   1.403       .  A
C3373      H3389   1.084       .  S
C3374      C3375   1.403       .  A
C3374      H3390   1.084       .  S
C3375      C3385   1.400       .  A
C3375      C3376   1.410       .  A
C3376      C3382   1.412       .  A
C3376      C3377   1.413       .  A
C3377      C3379   1.412       .  A
C3377      C3378   1.412       .  A
C3378      C3386   1.401       .  A
C3379      C3388   1.407       .  A
C3379      C3380   1.404       .  A
C3380      C3381   1.401       .  A
C3380      H3391   1.083       .  S
C3381      C3382   1.404       .  A
C3381      H3392   1.084       .  S
C3382      C3383   1.407       .  A
C3383      C3384   1.407       .  A
C3383      H3393   1.083       .  S
C3384      C3385   1.408       .  A
C3385      H3394   1.083       .  S
C3386      C3387   1.405       .  A
C3386      H3395   1.084       .  S
C3387      C3388   1.407       .  A
C3388      H3396   1.084       .  S
C3397      C3398   1.400       .  A
C3397      C3402   1.404       .  A
C3397      H3413   1.084       .  S
C3398      C3399   1.404       .  A
C3398      H3414   1.084       .  S
C3399      C3409   1.404       .  A
C3399      C3400   1.413       .  A
C3400      C3406   1.411       .  A
C3400      C3401   1.410       .  A
C3401      C3403   1.412       .  A
C3401      C3402   1.411       .  A
C3402      C3410   1.402       .  A
C3403      C3412   1.400       .  A
C3403      C3404   1.402       .  A
C3404      C3405   1.397       .  A
C3404      H3415   1.084       .  S
C3405      C3406   1.403       .  A
C3405      H3416   1.084       .  S
C3406      C3407   1.399       .  A
C3407      C3408   1.404       .  A
C3407      H3417   1.084       .  S
C3408      C3409   1.405       .  A
C3409      H3418   1.084       .  S
C3410      C3411   1.408       .  A
C3410      H3419   1.084       .  S
C3411      C3412   1.403       .  A
C3412      H3420   1.084       .  S
