geometry optimzed in LAMMPS
_audit_creation_date              2020-12-01 
_audit_creation_method            'lammps2cif' 
_symmetry_space_group_name_H-M    'P1' 
_symmetry_Int_Tables_number       1 
_symmetry_cell_setting            triclinic 
loop_ 
_symmetry_equiv_pos_as_xyz 
  x,y,z 
_cell_length_a                    35.63269502 
_cell_length_b                    34.766483421229374 
_cell_length_c                    36.298260113048755 
_cell_angle_alpha                 90.14234716114373 
_cell_angle_beta                  91.18693549437216 
_cell_angle_gamma                 90.57328756377166 
loop_ 
_atom_site_label 
_atom_site_type_symbol 
_atom_site_fract_x 
_atom_site_fract_y 
_atom_site_fract_z 
_atom_site_charge 
N1          N  0.13923030  0.84614739  0.49836019    -0.03200
C2          C  0.14272132  0.81708007  0.52356989    -0.00600
C3          C  0.14378964  0.78168572  0.50620618    -0.23500
C4          C  0.14388257  0.78858992  0.46942605    -0.23700
C5          C  0.14207318  0.82801909  0.46517506    -0.00700
H6          H  0.15023018  0.75434804  0.51897678     0.13100
H7          H  0.14934841  0.76749862  0.44825222     0.13100
N8          N  0.96338842  0.05617849  0.51227439    -0.03200
C9          C  0.96366476  0.06541612  0.54877424    -0.00600
C10         C  0.98796139  0.09650513  0.55434932    -0.23500
C11         C  0.99237002  0.11306970  0.52057079    -0.23700
C12         C  0.97200559  0.09015858  0.49591445    -0.00700
H13         H  0.99253761  0.11222108  0.57985408     0.13100
H14         H  0.00281756  0.14200613  0.51653026     0.13100
N15         N  0.94308114  0.85423788  0.51881000    -0.03200
C16         C  0.93169961  0.84493426  0.55341343    -0.00600
C17         C  0.89407744  0.85383552  0.55701912    -0.23500
C18         C  0.88060361  0.86289503  0.52289378    -0.23700
C19         C  0.91047677  0.86055860  0.49929398    -0.00700
H20         H  0.87631915  0.84572677  0.57965616     0.13100
H21         H  0.85105831  0.86326673  0.51534786     0.13100
N22         N  0.55115468  0.82714375  0.06535335    -0.03200
C23         C  0.51688506  0.80876705  0.06423499    -0.00600
C24         C  0.52140186  0.77083145  0.05349616    -0.23500
C25         C  0.55870953  0.76340290  0.05648033    -0.23700
C26         C  0.57650509  0.79791418  0.06490334    -0.00700
H27         H  0.49997298  0.74849956  0.05350379     0.13100
H28         H  0.57076362  0.73496136  0.05753331     0.13100
N29         N  0.96048883  0.45311803  0.09186972    -0.03200
C30         C  0.94440364  0.48813894  0.09727153     0.18200
C31         C  0.90916815  0.48908432  0.08057062    -0.23500
C32         C  0.90046065  0.45240208  0.07052226    -0.23700
C33         C  0.93047600  0.42992693  0.08201690    -0.00700
H34         H  0.88865762  0.51165008  0.08339500     0.13100
H35         H  0.87205073  0.44287337  0.06419524     0.13100
N36         N  0.96318214  0.42260555  0.90868685    -0.03200
C37         C  0.95672975  0.38425518  0.90332154    -0.00600
C38         C  0.92581958  0.37365846  0.92381589    -0.23500
C39         C  0.90657906  0.40681684  0.93007428    -0.23700
C40         C  0.92816235  0.43623487  0.91540468    -0.00700
H41         H  0.91231616  0.34560805  0.92370557     0.13100
H42         H  0.87731029  0.40729622  0.93719049     0.13100
N43         N  0.57168319  0.06251764  0.91784416    -0.03200
C44         C  0.53645026  0.07681653  0.92055594    -0.00600
C45         C  0.53781300  0.10731449  0.94516624    -0.23500
C46         C  0.57466680  0.11892783  0.94714948    -0.23700
C47         C  0.59437133  0.09326419  0.92554026    -0.00700
H48         H  0.51476556  0.12642660  0.95066903     0.13100
H49         H  0.58292226  0.14773610  0.95519714     0.13100
N50         N  0.16354341  0.42843131  0.91516700    -0.03200
C51         C  0.19594405  0.44894906  0.92124958    -0.00600
C52         C  0.22142079  0.42684876  0.94090199    -0.23500
C53         C  0.20683041  0.39047183  0.94089534    -0.23700
C54         C  0.17564920  0.39122023  0.91718895    -0.00700
H55         H  0.25039687  0.43330767  0.94780711     0.13100
H56         H  0.22419079  0.36587747  0.94701692     0.13100
N57         N  0.56437336  0.86609617  0.87451908    -0.03200
C58         C  0.53516582  0.86827277  0.84959464    -0.00600
C59         C  0.54831299  0.87749130  0.81500050    -0.23500
C60         C  0.58627710  0.87944504  0.81797858    -0.23700
C61         C  0.59574071  0.86774796  0.85332853    -0.00700
H62         H  0.53278254  0.87708861  0.78907320     0.13100
H63         H  0.60454101  0.87942713  0.79447181     0.13100
N64         N  0.06312633  0.37240829  0.37667549    -0.03200
C65         C  0.09417838  0.37852353  0.35587685    -0.00600
C66         C  0.08364893  0.39569626  0.32298683    -0.23500
C67         C  0.04569427  0.39176176  0.31990373    -0.23700
C68         C  0.03357840  0.37501393  0.35226458    -0.00700
H69         H  0.10147903  0.40037056  0.29956927     0.13100
H70         H  0.03026677  0.39382358  0.29403078     0.13100
O71         O  0.24830999  0.16445480  0.27378117    -0.88000
C72         C  0.29974467  0.27140092  0.26599207     0.88000
Mg73       Mg  0.27691388  0.11388589  0.29424220     1.58100
O74         O  0.27775169  0.22078305  0.18348979    -0.87800
O75         O  0.21098103  0.18759699  0.23123276    -0.75100
C76         C  0.42392889  0.10155777  0.19201302     0.93000
O77         O  0.31427058  0.19703069  0.32738825    -0.74900
O78         O  0.41391731  0.09084796  0.22380154    -0.82400
Mg79       Mg  0.25398570  0.21382190  0.30901628     1.58000
C80         C  0.36905328  0.22484687  0.11124418     0.93000
O81         O  0.19365698  0.23378767  0.29787815    -0.80700
H82         H  0.24265321  0.19695000  0.14596904    -0.06000
C83         C  0.38601474  0.20869619  0.22464739     0.87900
O84         O  0.28472815  0.09200087  0.23466737    -0.75200
O85         O  0.27539500  0.24611150  0.26209941    -0.88000
O86         O  0.33715161  0.23483342  0.12246629    -0.80800
C87         C  0.26602935  0.32036866  0.16633005     0.93100
C88         C  0.18528785  0.26711441  0.28630030     0.92900
Mg89       Mg  0.35510032  0.15557448  0.16761982     1.58000
O90         O  0.41475472  0.13449411  0.17968605    -0.80700
O91         O  0.29389422  0.17162425  0.14967602    -0.74900
O92         O  0.24951055  0.30864521  0.19511604    -0.80800
O93         O  0.22783699  0.17834353  0.35464394    -0.82500
O94         O  0.35804963  0.06045323  0.28164762    -0.80800
C95         C  0.27003645  0.19663761  0.15935090     0.87400
O96         O  0.33367060  0.12254565  0.21394598    -0.87900
O97         O  0.35853850  0.20458126  0.20369887    -0.88000
O98         O  0.39567392  0.18219506  0.24690544    -0.75100
Mg99       Mg  0.23547336  0.24753383  0.21656794     1.58000
O100        O  0.29568419  0.30402396  0.15573257    -0.82500
H101        H  0.20347463  0.13501380  0.25458026    -0.06200
O102        O  0.32872985  0.14695742  0.29416516    -0.87700
H103        H  0.36409006  0.16926268  0.33226549    -0.06000
H104        H  0.30526741  0.08361204  0.18344556    -0.06200
C105        C  0.33695302  0.17070284  0.31848406     0.87300
C106        C  0.22034850  0.16098168  0.25341235     0.87900
C107        C  0.30807025  0.09874055  0.20943088     0.88000
H108        H  0.40224502  0.23511345  0.22390041    -0.06200
O109        O  0.32222233  0.27913567  0.24020695    -0.75200
Mg110      Mg  0.37226015  0.12147351  0.26104027     1.58000
H111        H  0.30197622  0.28717045  0.29166557    -0.06200
C112        C  0.23591952  0.14536597  0.36739967     0.93000
O113        O  0.30887919  0.06359072  0.31800232    -0.82400
C114        C  0.33973185  0.04848237  0.30922784     0.93000
O115        O  0.19655616  0.27869994  0.25524573    -0.82400
Mg116      Mg  0.32859147  0.25421391  0.18140418     1.58200
O117        O  0.26343700  0.12669672  0.35493886    -0.80800
O118        O  0.38299628  0.19355245  0.12288047    -0.82500
N119        N  0.44450195  0.92721493  0.40594448    -0.03200
C120        C  0.41071992  0.94285669  0.41398274    -0.00600
C121        C  0.38926466  0.91501996  0.43140184    -0.23500
C122        C  0.40575075  0.88059233  0.42357201    -0.23700
C123        C  0.43533960  0.88937562  0.40063494    -0.00700
H124        H  0.36096249  0.91761449  0.44118513     0.13100
H125        H  0.39068067  0.85342816  0.42459970     0.13100
O126        O  0.32115572  0.75401312  0.28977450    -0.88000
C127        C  0.21369550  0.74007633  0.24684712     0.88000
Mg128      Mg  0.36835970  0.76239791  0.25191808     1.58100
O129        O  0.25986977  0.66131268  0.28777363    -0.87800
O130        O  0.29882506  0.72429724  0.33743046    -0.75100
C131        C  0.35580786  0.61702764  0.13557784     0.93000
O132        O  0.28794842  0.79290906  0.21519206    -0.74900
O133        O  0.36700881  0.65197195  0.13684378    -0.82400
Mg134      Mg  0.27494435  0.79396323  0.27762294     1.58000
C135        C  0.24375353  0.56132890  0.22657864     0.93000
O136        O  0.25476420  0.80506564  0.33739620    -0.80700
H137        H  0.28394086  0.63513106  0.33111369    -0.06000
C138        C  0.26166588  0.66431761  0.17577400     0.87900
O139        O  0.38849676  0.69971953  0.25810531    -0.75200
O140        O  0.23907278  0.74289120  0.27055129    -0.88000
O141        O  0.23798104  0.58269962  0.25396482    -0.80800
C142        C  0.16583788  0.65460547  0.31080673     0.93100
C143        C  0.22502962  0.79268857  0.35250097     0.92900
Mg144      Mg  0.31587146  0.61503644  0.21874160     1.58000
O145        O  0.33240073  0.60365610  0.15853752    -0.80700
O146        O  0.30504038  0.61973128  0.28159026    -0.74900
O147        O  0.17666142  0.68951445  0.31028136    -0.80800
O148        O  0.31627327  0.84414777  0.29062445    -0.82500
O149        O  0.40822041  0.72602116  0.17188441    -0.80800
C150        C  0.28278522  0.63876770  0.30154167     0.87400
O151        O  0.35177169  0.66614310  0.22093960    -0.87900
O152        O  0.26829523  0.65179822  0.20688718    -0.88000
O153        O  0.28612974  0.68380780  0.15894950    -0.75100
Mg154      Mg  0.23829329  0.70794769  0.31952924     1.58000
O155        O  0.17763294  0.63162477  0.28666178    -0.82500
H156        H  0.35237580  0.74416147  0.33534097    -0.06200
O157        O  0.32948789  0.74799630  0.20755914    -0.87700
H158        H  0.30923180  0.77896395  0.16537764    -0.06000
H159        H  0.39313383  0.64198682  0.25067424    -0.06200
C160        C  0.30902202  0.77325801  0.19463681     0.87300
C161        C  0.32556869  0.74113381  0.32122295     0.87900
C162        C  0.37841527  0.66797972  0.24325861     0.88000
H163        H  0.23448519  0.65901311  0.16285848    -0.06200
O164        O  0.20308266  0.70735355  0.23414789    -0.75200
Mg165      Mg  0.34726345  0.70218888  0.17192279     1.58000
H166        H  0.20006018  0.76580450  0.23692490    -0.06200
C167        C  0.34899553  0.84209768  0.27776179     0.93000
O168        O  0.41304367  0.77663350  0.20925726    -0.82400
C169        C  0.42204620  0.75909279  0.17999698     0.93000
O170        O  0.21436350  0.75797668  0.34902011    -0.82400
Mg171      Mg  0.22221657  0.64409465  0.24443036     1.58200
O172        O  0.35313241  0.82400227  0.24795439    -0.80800
O173        O  0.27543045  0.56292853  0.21119236    -0.82500
O174        O  0.75448014  0.21509159  0.21793209    -0.88000
C175        C  0.78538666  0.10323919  0.23123885     0.88000
Mg176      Mg  0.78996748  0.25666485  0.19049815     1.58100
O177        O  0.77583475  0.15919999  0.31207513    -0.87800
O178        O  0.71561293  0.20198065  0.26221538    -0.75100
C179        C  0.93771700  0.25525856  0.29509792     0.93000
O180        O  0.80700488  0.16640944  0.16400575    -0.74900
O181        O  0.92894572  0.26235364  0.26164296    -0.82400
Mg182      Mg  0.74613190  0.16378773  0.18627460     1.58000
C183        C  0.86974556  0.15453592  0.38628213     0.93000
O184        O  0.68671643  0.16010371  0.20540822    -0.80700
H185        H  0.74578467  0.19227356  0.34533441    -0.06000
C186        C  0.88391739  0.15236941  0.27125948     0.87900
O187        O  0.80511360  0.28549118  0.24597171    -0.75200
O188        O  0.76551578  0.13185680  0.23411770    -0.88000
O189        O  0.84233140  0.13443569  0.37359659    -0.80800
C190        C  0.74986136  0.06627929  0.33245266     0.93100
C191        C  0.67294467  0.12709859  0.21104657     0.92900
Mg192      Mg  0.86086205  0.21667978  0.32036325     1.58000
O193        O  0.92361869  0.22623323  0.31107229    -0.80700
O194        O  0.79905304  0.21155078  0.33765099    -0.74900
O195        O  0.73507253  0.07719123  0.30201598    -0.80800
O196        O  0.72112620  0.19967402  0.13979692    -0.82500
O197        O  0.88017204  0.29526751  0.19715747    -0.80800
C198        C  0.77238302  0.18746965  0.33237365     0.87400
O199        O  0.84527928  0.24571179  0.26982602    -0.87900
O200        O  0.85797370  0.16263947  0.29086523    -0.88000
O201        O  0.89640898  0.17413111  0.24618181    -0.75100
Mg202      Mg  0.72792984  0.13842393  0.27947383     1.58000
O203        O  0.78260310  0.07708984  0.34264551    -0.82500
H204        H  0.71882761  0.25421011  0.23704198    -0.06200
O205        O  0.83428393  0.21443130  0.19365838    -0.87700
H206        H  0.86150673  0.18253180  0.15694643    -0.06000
H207        H  0.83094232  0.29402977  0.29581791    -0.06200
C208        C  0.83564198  0.18771818  0.17111048     0.87300
C209        C  0.72950231  0.22526800  0.23890990     0.87900
C210        C  0.82754539  0.27583480  0.27175920     0.88000
H211        H  0.89608552  0.12430035  0.27537139    -0.06200
O212        O  0.80782841  0.09368460  0.25718390    -0.75200
Mg213      Mg  0.88295726  0.23530935  0.22510426     1.58000
H214        H  0.78372065  0.08613061  0.20633347    -0.06200
C215        C  0.73708201  0.22813933  0.12497872     0.93000
O216        O  0.82915221  0.29782984  0.16141118    -0.82400
C217        C  0.86238586  0.30909105  0.16941572     0.93000
O218        O  0.68022139  0.11150101  0.24190984    -0.82400
Mg219      Mg  0.82211220  0.11915603  0.31490332     1.58200
O220        O  0.77110017  0.23620824  0.13303472    -0.80800
O221        O  0.88016970  0.18533880  0.37080511    -0.82500
N222        N  0.63785489  0.93987615  0.40365609    -0.03200
C223        C  0.63620627  0.97860884  0.39801619    -0.00600
C224        C  0.61211550  0.98542761  0.36817333    -0.23500
C225        C  0.61054641  0.95181601  0.34866738    -0.23700
C226        C  0.63244807  0.92609996  0.36860252    -0.00700
H227        H  0.60652460  0.01303614  0.35559578     0.13100
H228        H  0.60175301  0.94959168  0.32003524     0.13100
O229        O  0.79097220  0.64795310  0.21479621    -0.88000
C230        C  0.89775223  0.68867486  0.23098322     0.88000
Mg231      Mg  0.74774053  0.68312578  0.18916125     1.58100
O232        O  0.84116881  0.67350926  0.30888924    -0.87800
O233        O  0.80548078  0.60744821  0.25844865    -0.75100
C234        C  0.74435089  0.83668263  0.29162909     0.93000
O235        O  0.83317046  0.70907297  0.16342051    -0.74900
O236        O  0.73621678  0.82709541  0.25852245    -0.82400
Mg237      Mg  0.84112886  0.64577783  0.18301020     1.58000
C238        C  0.84660926  0.76841590  0.38281601     0.93000
O239        O  0.85293114  0.58329899  0.19797959    -0.80700
H240        H  0.81094476  0.63993636  0.34200940    -0.06000
C241        C  0.84446084  0.78501765  0.27008585     0.87900
O242        O  0.72028653  0.69420505  0.24494266    -0.75200
O243        O  0.87127464  0.66560948  0.23233522    -0.88000
O244        O  0.86039194  0.73659027  0.37294572    -0.80800
C245        C  0.93337512  0.65135221  0.33373776     0.93100
C246        C  0.88370729  0.57154464  0.21195884     0.92900
Mg247      Mg  0.78361356  0.75789262  0.31866807     1.58000
O248        O  0.77201222  0.82167108  0.30870799    -0.80700
O249        O  0.79090222  0.69418296  0.33598317    -0.74900
O250        O  0.92483709  0.63712571  0.30235647    -0.80800
O251        O  0.80563985  0.61986064  0.13483458    -0.82500
O252        O  0.70455609  0.77424062  0.19464602    -0.80800
C253        C  0.81448667  0.66788243  0.32948148     0.87400
O254        O  0.75402072  0.74093395  0.26871550    -0.87900
O255        O  0.83539247  0.75730044  0.28914663    -0.88000
O256        O  0.82243433  0.79763464  0.24509968    -0.75100
Mg257      Mg  0.86523807  0.62657731  0.27831173     1.58000
O258        O  0.91971979  0.68305647  0.34400796    -0.82500
H259        H  0.75557291  0.60614556  0.23008574    -0.06200
O260        O  0.78565991  0.73188003  0.19369317    -0.87700
H261        H  0.81404679  0.76376992  0.15759864    -0.06000
H262        H  0.70943482  0.71907132  0.29426380    -0.06200
C263        C  0.81092220  0.73631165  0.17116875     0.87300
C264        C  0.78259201  0.62012290  0.23411934     0.87900
C265        C  0.72707835  0.71850524  0.27039770     0.88000
H266        H  0.87151656  0.79874049  0.27471206    -0.06200
O267        O  0.90510575  0.71149775  0.25765935    -0.75200
Mg268      Mg  0.76301996  0.78039710  0.22360884     1.58000
H269        H  0.91492711  0.68947464  0.20678236    -0.06200
C270        C  0.77582171  0.63518529  0.12239455     0.93000
O271        O  0.70538357  0.72105991  0.16076299    -0.82400
C272        C  0.69259288  0.75434937  0.16721005     0.93000
O273        O  0.89389508  0.58129964  0.24427521    -0.82400
Mg274      Mg  0.87857526  0.72210002  0.31465781     1.58200
O275        O  0.76799237  0.66923747  0.13186042    -0.80800
O276        O  0.81659357  0.78033620  0.36765353    -0.82500
N277        N  0.06215957  0.56502745  0.43592776    -0.03200
C278        C  0.08808960  0.59411694  0.43936221    -0.00600
C279        C  0.07481405  0.62120707  0.46393964    -0.23500
C280        C  0.03743309  0.61346421  0.46761622    -0.23700
C281        C  0.02940261  0.58254458  0.44444461    -0.00700
H282        H  0.08797388  0.64853893  0.47094626     0.13100
H283        H  0.01778348  0.63481366  0.47680103     0.13100
N284        N  0.47938985  0.34111109  0.00869391    -0.03200
C285        C  0.44769145  0.34450347  0.02931270    -0.00600
C286        C  0.42539060  0.37344234  0.01459981    -0.23500
C287        C  0.43773684  0.37913171  0.97977587    -0.23700
C288        C  0.46531056  0.35156206  0.97473988    -0.00700
H289        H  0.39864783  0.38316734  0.02448084     0.13100
H290        H  0.42053570  0.39259812  0.95864393     0.13100
O291        O  0.27691324  0.24495580  0.71607614    -0.88000
C292        C  0.27915563  0.21267306  0.82512134     0.88000
Mg293      Mg  0.25592993  0.20461210  0.67429475     1.58100
O294        O  0.36652953  0.22388234  0.78103508    -0.87800
O295        O  0.32021330  0.28587880  0.73435214    -0.75100
C296        C  0.35562564  0.05186171  0.69468563     0.93000
O297        O  0.21682548  0.18821622  0.75460489    -0.74900
O298        O  0.32265630  0.06237424  0.68613652    -0.82400
Mg299      Mg  0.23762039  0.25159798  0.76021694     1.58000
C300        C  0.44185840  0.13131697  0.80165387     0.93000
O301        O  0.25267704  0.31440188  0.76990033    -0.80700
H302        H  0.40588984  0.25433464  0.75510621    -0.06000
C303        C  0.32415457  0.11294965  0.78740123     0.87900
O304        O  0.31622499  0.19043397  0.65629307    -0.75200
O305        O  0.28404110  0.23356445  0.79810407    -0.88000
O306        O  0.42843997  0.16346167  0.81125432    -0.80800
C307        C  0.38178671  0.25379652  0.87233395     0.93100
C308        C  0.25961931  0.32512938  0.80278123     0.92900
Mg309      Mg  0.38369978  0.13400571  0.73275980     1.58000
O310        O  0.37555762  0.06952919  0.71901562    -0.80700
O311        O  0.40161655  0.19828232  0.73910346    -0.74900
O312        O  0.35215519  0.26843022  0.85798802    -0.80800
O313        O  0.19452182  0.27478013  0.71629062    -0.82500
O314        O  0.27243492  0.11450966  0.64111629    -0.80800
C315        C  0.39180222  0.22691564  0.75844827     0.87400
O316        O  0.33659865  0.14955718  0.69745929    -0.87900
O317        O  0.34667644  0.13843768  0.77892231    -0.88000
O318        O  0.30001744  0.10004506  0.76422547    -0.75100
Mg319      Mg  0.33222214  0.27255237  0.79642437     1.58000
O320        O  0.39175332  0.22010622  0.86365392    -0.82500
H321        H  0.29943333  0.28329919  0.68167987    -0.06200
O322        O  0.25607471  0.16217925  0.71671626    -0.87700
H323        H  0.21410381  0.13197200  0.73888146    -0.06000
H324        H  0.36813423  0.16663360  0.65541225    -0.06200
C325        C  0.22859565  0.15932013  0.73676526     0.87300
C326        C  0.29880370  0.27159636  0.70923140     0.87900
C327        C  0.34163510  0.16855134  0.66924597     0.88000
H328        H  0.32458958  0.10188725  0.81521473    -0.06200
O329        O  0.30524164  0.19116056  0.83759014    -0.75200
Mg330      Mg  0.28802580  0.11211514  0.70284481     1.58000
H331        H  0.25234461  0.21280760  0.83852835    -0.06200
C332        C  0.18678275  0.25535151  0.68736456     0.93000
O333        O  0.22976217  0.15973150  0.63569678    -0.82400
C334        C  0.24139660  0.12633294  0.62797260     0.93000
O335        O  0.29165684  0.31836322  0.81725782    -0.82400
Mg336      Mg  0.36684918  0.17826427  0.82116244     1.58200
O337        O  0.19630937  0.22037621  0.68651416    -0.80800
O338        O  0.42955977  0.11388664  0.77304499    -0.82500
N339        N  0.44435695  0.93373093  0.58519604    -0.03200
C340        C  0.41351022  0.95588003  0.57981542    -0.00600
C341        C  0.38803970  0.93659291  0.55693866    -0.23500
C342        C  0.39932437  0.89912879  0.55689959    -0.23700
C343        C  0.42938090  0.89760144  0.58204179    -0.00700
H344        H  0.36002455  0.94589010  0.54937873     0.13100
H345        H  0.38037298  0.87576641  0.54937816     0.13100
O346        O  0.34889888  0.73049552  0.73021428    -0.88000
C347        C  0.32786886  0.72668904  0.84075147     0.88000
Mg348      Mg  0.30840701  0.75185889  0.69003955     1.58100
O349        O  0.34001210  0.63849158  0.79339150    -0.87800
O350        O  0.39242367  0.68885445  0.74385162    -0.75100
C351        C  0.17400939  0.63482149  0.71030306     0.93000
O352        O  0.29547271  0.78818104  0.77442519    -0.74900
O353        O  0.17485846  0.66931746  0.69891237    -0.82400
Mg354      Mg  0.35820133  0.76937304  0.77584935     1.58000
C355        C  0.25482285  0.55885215  0.81639998     0.93000
O356        O  0.41932346  0.75445627  0.77824304    -0.80700
H357        H  0.36981625  0.60056993  0.76487653    -0.06000
C358        C  0.23025560  0.67412026  0.80378216     0.87900
O359        O  0.29554891  0.69054511  0.66901922    -0.75200
O360        O  0.34585086  0.72174676  0.81248250    -0.88000
O361        O  0.28696664  0.57345661  0.82345661    -0.80800
C362        C  0.37471000  0.62928964  0.88493882     0.93100
C363        C  0.43557565  0.75021002  0.80922920     0.92900
Mg364      Mg  0.25133368  0.61742991  0.74764803     1.58000
O365        O  0.18890110  0.62713648  0.74147170    -0.80700
O366        O  0.31449438  0.60223780  0.75008476    -0.74900
O367        O  0.38997129  0.65597685  0.86646970    -0.80800
O368        O  0.37721561  0.81516535  0.73545765    -0.82500
O369        O  0.21613103  0.73644291  0.66131893    -0.80800
C370        C  0.34275266  0.61328010  0.76953376     0.87400
O371        O  0.26104440  0.66699161  0.71216396    -0.87900
O372        O  0.25748163  0.65531601  0.79398404    -0.88000
O373        O  0.21296979  0.69601373  0.78134750    -0.75100
Mg374      Mg  0.38657365  0.67583614  0.80637892     1.58000
O375        O  0.34161238  0.61710234  0.87762909    -0.82500
H376        H  0.38328152  0.70978516  0.69217577    -0.06200
O377        O  0.26763859  0.75024297  0.73377843    -0.87700
H378        H  0.23964410  0.79045780  0.76134690    -0.06000
H379        H  0.27411062  0.63622675  0.66759560    -0.06200
C380        C  0.26618381  0.77667775  0.75660332     0.87300
C381        C  0.37491258  0.70978247  0.72062232     0.87900
C382        C  0.27657804  0.66314594  0.68241028     0.88000
H383        H  0.22086240  0.67179026  0.83182773    -0.06200
O384        O  0.30784994  0.69978900  0.85379471    -0.75200
Mg385      Mg  0.22005444  0.71253023  0.72007812     1.58000
H386        H  0.32885314  0.75439886  0.85434050    -0.06200
C387        C  0.35964621  0.82350302  0.70598652     0.93000
O388        O  0.26398052  0.77609648  0.65123548    -0.82400
C389        C  0.23046963  0.76491591  0.64450047     0.93000
O390        O  0.43238126  0.71813935  0.82521153    -0.82400
Mg391      Mg  0.29809970  0.63692766  0.83529718     1.58200
O392        O  0.32535078  0.81374260  0.70213706    -0.80800
O393        O  0.23625599  0.56966726  0.78815501    -0.82500
N394        N  0.07121245  0.50443511  0.61753270    -0.03200
C395        C  0.10641702  0.50496769  0.63307508    -0.00600
C396        C  0.10746845  0.47826738  0.66148880    -0.23500
C397        C  0.07102546  0.47185529  0.67069963    -0.23700
C398        C  0.04951754  0.49315675  0.64605236    -0.00700
H399        H  0.13073212  0.47324484  0.68047313     0.13100
H400        H  0.06234471  0.45945368  0.69649137     0.13100
N401        N  0.06808263  0.31383788  0.56039741    -0.03200
C402        C  0.09926511  0.29125128  0.56040023    -0.00600
C403        C  0.08922683  0.25459080  0.54812838    -0.23500
C404        C  0.05115158  0.25380597  0.54352716    -0.23700
C405        C  0.03840890  0.28906162  0.55523559    -0.00700
H406        H  0.10620836  0.22899590  0.54894311     0.13100
H407        H  0.03458438  0.22757986  0.54114835     0.13100
O408        O  0.83163776  0.22853431  0.67794373    -0.88000
C409        C  0.82229080  0.11838153  0.72048002     0.88000
Mg410      Mg  0.86116966  0.27435789  0.70750822     1.58100
O411        O  0.73798404  0.16974311  0.70921850    -0.87800
O412        O  0.78264894  0.20953460  0.64498656    -0.75100
C413        C  0.76755159  0.28060623  0.85900559     0.93000
O414        O  0.89152064  0.18622245  0.73320288    -0.74900
O415        O  0.79943645  0.28852616  0.84579569    -0.82400
Mg416      Mg  0.86353637  0.17646218  0.67562254     1.58000
C417        C  0.67421129  0.16723683  0.80653349     0.93000
O418        O  0.84038563  0.16542622  0.61915254    -0.80700
H419        H  0.69866018  0.19611379  0.67868328    -0.06000
C420        C  0.78954237  0.17493583  0.81260833     0.87900
O421        O  0.80413953  0.30126868  0.72263899    -0.75200
O422        O  0.81675410  0.14550373  0.69930525    -0.88000
O423        O  0.68123007  0.15036646  0.77635827    -0.80800
C424        C  0.71871783  0.07269455  0.69254374     0.93100
C425        C  0.83307242  0.13111107  0.61004013     0.92900
Mg426      Mg  0.73404332  0.23386907  0.78677007     1.58000
O427        O  0.74821692  0.25238610  0.84637174    -0.80700
O428        O  0.70994978  0.22133493  0.72831767    -0.74900
O429        O  0.74698157  0.08524577  0.67512395    -0.80800
O430        O  0.90830707  0.20937000  0.64670880    -0.82500
O431        O  0.85164541  0.31988267  0.78481351    -0.80800
C432        C  0.71477064  0.19539107  0.70423886     0.87400
O433        O  0.78251393  0.26319897  0.76487031    -0.87900
O434        O  0.76636549  0.18157583  0.78770977    -0.88000
O435        O  0.81539727  0.19905883  0.82107370    -0.75100
Mg436      Mg  0.76754783  0.14675287  0.66322948     1.58000
O437        O  0.71055491  0.08660539  0.72379763    -0.82500
H438        H  0.80670197  0.26271471  0.64071269    -0.06200
O439        O  0.86118280  0.23562946  0.75402662    -0.87700
H440        H  0.90227740  0.21055497  0.78346909    -0.06000
H441        H  0.75372689  0.30885417  0.74687899    -0.06200
C442        C  0.88565702  0.21102052  0.75821318     0.87300
C443        C  0.80712749  0.23503340  0.65420956     0.87900
C444        C  0.77872744  0.29165744  0.74497734     0.88000
H445        H  0.78795634  0.14798764  0.82731936    -0.06200
O446        O  0.79808309  0.10912863  0.74412962    -0.75200
Mg447      Mg  0.83176862  0.25967139  0.80021431     1.58000
H448        H  0.84807685  0.10238096  0.71892819    -0.06200
C449        C  0.92534522  0.24002264  0.65605947     0.93000
O450        O  0.89533443  0.31693834  0.74311733    -0.82400
C451        C  0.88501218  0.32681167  0.77495451     0.93000
O452        O  0.80142328  0.11703186  0.61793961    -0.82400
Mg453      Mg  0.73993580  0.13378262  0.75763974     1.58200
O454        O  0.91891942  0.25644534  0.68658286    -0.80800
O455        O  0.68800132  0.20029803  0.81353045    -0.82500
N456        N  0.64003682  0.92371337  0.60027746    -0.03200
C457        C  0.64901165  0.88937574  0.61634677    -0.00600
C458        C  0.63287611  0.88707198  0.65072251    -0.23500
C459        C  0.62188749  0.92331679  0.65944656    -0.23700
C460        C  0.63088760  0.94633898  0.62969714    -0.00700
H461        H  0.63794658  0.86482327  0.67103366     0.13100
H462        H  0.61686178  0.93269021  0.68735484     0.13100
O463        O  0.86497911  0.63812893  0.77877396    -0.88000
C464        C  0.82542812  0.62995913  0.67244943     0.88000
Mg465      Mg  0.82804693  0.62937678  0.82417642     1.58100
O466        O  0.84989538  0.72280016  0.70395280    -0.87800
O467        O  0.90752167  0.67590680  0.75521561    -0.75100
C468        C  0.69676850  0.75502281  0.80095054     0.93000
O469        O  0.79605696  0.58560165  0.74718374    -0.74900
O470        O  0.70305317  0.72285154  0.81612529    -0.82400
Mg471      Mg  0.85988985  0.59359625  0.73817417     1.58000
C472        C  0.76893587  0.80881544  0.67661908     0.93000
O473        O  0.92261639  0.59447045  0.72760826    -0.80700
H474        H  0.88802640  0.76258503  0.71937971    -0.06000
C475        C  0.73603897  0.69751358  0.71011108     0.87900
O476        O  0.82718983  0.69548947  0.83380814    -0.75200
O477        O  0.84822819  0.63702471  0.69768465    -0.88000
O478        O  0.79403317  0.78737519  0.66345290    -0.80800
C479        C  0.87593562  0.71866107  0.61711448     0.93100
C480        C  0.94002725  0.60191648  0.69827871     0.92900
Mg481      Mg  0.77378053  0.76152021  0.75344525     1.58000
O482        O  0.71219049  0.76449699  0.77090371    -0.80700
O483        O  0.83635330  0.76988439  0.74077677    -0.74900
O484        O  0.88264201  0.68609586  0.63134808    -0.80800
O485        O  0.87509626  0.54999434  0.78207678    -0.82500
O486        O  0.75376773  0.66870100  0.86060305    -0.80800
C487        C  0.85944623  0.75211413  0.72099107     0.87400
O488        O  0.78641695  0.71720727  0.79335483    -0.87900
O489        O  0.76571639  0.71607147  0.71265182    -0.88000
O490        O  0.72259818  0.68045002  0.73791244    -0.75100
Mg491      Mg  0.89186014  0.67952787  0.69309603     1.58000
O492        O  0.84411072  0.73411422  0.62075224    -0.82500
H493        H  0.90676240  0.66128145  0.80942154    -0.06200
O494        O  0.78182026  0.63173113  0.78516986    -0.87700
H495        H  0.74332176  0.59405334  0.76589086    -0.06000
H496        H  0.81439205  0.75216690  0.82842825    -0.06200
C497        C  0.77230968  0.60355865  0.76626395     0.87300
C498        C  0.89354207  0.65832274  0.78247422     0.87900
C499        C  0.80940157  0.72309012  0.81875326     0.88000
H500        H  0.72132197  0.69564577  0.68380999    -0.06200
O501        O  0.80582440  0.65640176  0.65785932    -0.75200
Mg502      Mg  0.74180851  0.67542313  0.79903395     1.58000
H503        H  0.82176017  0.60065741  0.66289536    -0.06200
C504        C  0.85914527  0.54387733  0.81242803     0.93000
O505        O  0.78698335  0.61671198  0.86902312    -0.82400
C506        C  0.75829130  0.63629603  0.87603331     0.93000
O507        O  0.93259034  0.63170774  0.67937773    -0.82400
Mg508      Mg  0.80234605  0.72220909  0.66566056     1.58200
O509        O  0.83105239  0.56359116  0.82158275    -0.80800
O510        O  0.75769372  0.80492909  0.70943562    -0.82500
N511        N  0.45598200  0.52049160  0.01466246    -0.03200
C512        C  0.42605058  0.50911308  0.03493416    -0.00600
C513        C  0.40273860  0.48582348  0.01299384    -0.23500
C514        C  0.41393031  0.49125023  0.97752885    -0.23700
C515        C  0.44254264  0.51843149  0.97935685    -0.00700
H516        H  0.37586703  0.47338203  0.01971897     0.13100
H517        H  0.39601007  0.48536372  0.95366692     0.13100
N518        N  0.67999151  0.35958539  0.00264412    -0.03200
C519        C  0.69469024  0.35132777  0.03679517    -0.00600
C520        C  0.73170212  0.36318586  0.03958613    -0.23500
C521        C  0.74220063  0.37309880  0.00514524    -0.23700
C522        C  0.71097057  0.36819567  0.98190738    -0.00700
H523        H  0.75121085  0.35688264  0.06200811     0.13100
H524        H  0.77124348  0.37631322  0.99752712     0.13100
N525        N  0.64979865  0.56009065  0.00254246    -0.03200
C526        C  0.65225795  0.57920459  0.03554288    -0.00600
C527        C  0.63913670  0.61625374  0.03107013    -0.23500
C528        C  0.63753046  0.62283999  0.99410567    -0.23700
C529        C  0.64641243  0.58857419  0.97689492    -0.00700
H530        H  0.64121876  0.63907980  0.05141501     0.13100
H531        H  0.63711635  0.65119449  0.98187114     0.13100
N532        N  0.55825025  0.02969203  0.09352880    -0.03200
C533        C  0.52163551  0.04064653  0.08804389    -0.00600
C534        C  0.52109011  0.07618955  0.07063127    -0.23500
C535        C  0.55540315  0.09230015  0.07714641    -0.23700
C536        C  0.57693455  0.06440515  0.09432246    -0.00700
H537        H  0.49656566  0.09337434  0.06449669     0.13100
H538        H  0.56070537  0.12286395  0.07567853     0.13100
N539        N  0.16120016  0.46343244  0.09806518    -0.03200
C540        C  0.19575410  0.44953180  0.08895368    -0.00600
C541        C  0.22026335  0.48025772  0.08373839    -0.23500
C542        C  0.20259802  0.51229552  0.09605918    -0.23700
C543        C  0.16861731  0.50003324  0.11010689    -0.00700
H544        H  0.25010766  0.47939007  0.07917837     0.13100
H545        H  0.21737498  0.53875141  0.10326026     0.13100
N546        N  0.13851827  0.04978462  0.49683201    -0.03200
C547        C  0.13276233  0.06357645  0.53160297    -0.00600
C548        C  0.11459584  0.09868828  0.52969704    -0.23500
C549        C  0.11747063  0.11103666  0.49442471    -0.23700
C550        C  0.13490808  0.08201224  0.47541430    -0.00700
H551        H  0.10932065  0.11792243  0.55248334     0.13100
H552        H  0.11384792  0.14055923  0.48582264     0.13100
N553        N  0.10429575  0.94601218  0.49238507    -0.36300
N554        N  0.04305502  0.89002886  0.50820789    -0.56900
N555        N  0.98765265  0.95078458  0.50443215    -0.36300
N556        N  0.04913649  0.00713197  0.49620994    -0.56900
C557        C  0.12387167  0.91524193  0.50446653     0.27300
C558        C  0.12617778  0.97803202  0.49769682     0.27300
C559        C  0.96723611  0.92194874  0.51933745     0.27300
C560        C  0.97122014  0.98457551  0.51341395     0.27300
C561        C  0.07204565  0.86589954  0.50166013     0.35900
C562        C  0.01091911  0.86826798  0.50760216     0.35900
C563        C  0.07769750  0.02103701  0.47621221     0.35900
C564        C  0.01776976  0.02409802  0.48311796     0.35900
C565        C  0.15885471  0.92774083  0.51717438    -0.21600
C566        C  0.16025497  0.96740181  0.51315436    -0.21600
C567        C  0.93729604  0.93792850  0.53770182    -0.21600
C568        C  0.93969289  0.97718482  0.53373027    -0.21600
C569        C  0.05776861  0.82874612  0.49727948    -0.22600
C570        C  0.01950541  0.83027749  0.50132929    -0.22600
C571        C  0.06432264  0.04596421  0.44951152    -0.22600
C572        C  0.02621258  0.04798317  0.45387936    -0.22600
C573        C  0.11134085  0.87631470  0.50222059    -0.18000
C574        C  0.11558684  0.01578720  0.48695242    -0.18000
C575        C  0.98324548  0.02132159  0.50137037    -0.18000
C576        C  0.97417374  0.88179068  0.51488774    -0.18000
H577        H  0.18071824  0.91039377  0.52915408     0.14900
H578        H  0.18377128  0.98598877  0.52034000     0.14900
H579        H  0.91602003  0.92367643  0.55329723     0.14900
H580        H  0.91985254  0.99747038  0.54416335     0.14900
H581        H  0.07283506  0.80264999  0.49223089     0.13200
H582        H  0.00039048  0.80596428  0.50041951     0.13200
H583        H  0.08022846  0.06090255  0.42891300     0.13200
H584        H  0.00712239  0.06495078  0.43725295     0.13200
H585        H  0.07849848  0.94467119  0.47854347     0.26500
H586        H  0.00969000  0.94741272  0.48632919     0.26500
N587        N  0.56742759  0.93250857  0.04580144    -0.36300
N588        N  0.56081678  0.88628200  0.97746563    -0.56900
N589        N  0.57249394  0.95535643  0.93233788    -0.36300
N590        N  0.57158996  0.00267719  0.99956410    -0.56900
C591        C  0.55549297  0.89848557  0.05995119     0.27300
C592        C  0.56082671  0.96081472  0.07090118     0.27300
C593        C  0.56133662  0.93001656  0.90582820     0.27300
C594        C  0.56805929  0.99133643  0.91847589     0.27300
C595        C  0.56273163  0.85752683  0.00306235     0.35900
C596        C  0.56609828  0.87008230  0.94355855     0.35900
C597        C  0.58637446  0.01260839  0.03294130     0.35900
C598        C  0.58901146  0.02497391  0.97442822     0.35900
C599        C  0.54243449  0.90516472  0.09512554    -0.21600
C600        C  0.54529012  0.94440206  0.10178255    -0.21600
C601        C  0.55029081  0.95079447  0.87468594    -0.21600
C602        C  0.55461296  0.98917894  0.88273071    -0.21600
C603        C  0.56862208  0.82313710  0.98442627    -0.22600
C604        C  0.57141683  0.83120340  0.94758619    -0.22600
C605        C  0.61417809  0.04030576  0.02868246    -0.22600
C606        C  0.61564680  0.04835510  0.99174966    -0.22600
C607        C  0.55719943  0.86157362  0.04248831    -0.18000
C608        C  0.57086670  0.00047544  0.06692004    -0.18000
C609        C  0.57836600  0.02590071  0.93657363    -0.18000
C610        C  0.56356942  0.88899865  0.90857921    -0.18000
H611        H  0.53169119  0.88410590  0.11408553     0.14900
H612        H  0.53767081  0.95889967  0.12684376     0.14900
H613        H  0.53970945  0.94071919  0.84850681     0.14900
H614        H  0.54908301  0.01273510  0.86404055     0.14900
H615        H  0.57070385  0.79451174  0.99499164     0.13200
H616        H  0.57653269  0.81044198  0.92621760     0.13200
H617        H  0.63209836  0.05311893  0.04980846     0.13200
H618        H  0.63507019  0.06830082  0.97932445     0.13200
H619        H  0.58171925  0.93585630  0.02132010     0.26500
H620        H  0.58574255  0.94848669  0.95723908     0.26500
N621        N  0.06152754  0.45311655  0.06044108    -0.36300
N622        N  0.00289718  0.43750189  0.00149594    -0.56900
N623        N  0.06272558  0.43746377  0.94464906    -0.36300
N624        N  0.12172340  0.44177211  0.00507021    -0.56900
C625        C  0.03040176  0.44980700  0.08121860     0.27300
C626        C  0.09240181  0.45232790  0.08297811     0.27300
C627        C  0.03232661  0.42529329  0.92466123     0.27300
C628        C  0.09403747  0.42741296  0.92651413     0.27300
C629        C  0.98658558  0.45824106  0.02849675     0.35900
C630        C  0.98735101  0.44971144  0.96909217     0.35900
C631        C  0.13673159  0.46369011  0.03284964     0.35900
C632        C  0.13669024  0.45531397  0.97338865     0.35900
C633        C  0.04165074  0.44761943  0.11795227    -0.21600
C634        C  0.08074228  0.44914577  0.11905992    -0.21600
C635        C  0.04451223  0.40783366  0.89268543    -0.21600
C636        C  0.08353353  0.40905559  0.89394503    -0.21600
C637        C  0.96214714  0.48460608  0.01285563    -0.22600
C638        C  0.96246033  0.47908892  0.97553719    -0.22600
C639        C  0.15976846  0.49191895  0.01843383    -0.22600
C640        C  0.15964549  0.48674784  0.98105943    -0.22600
C641        C  0.99277574  0.45266982  0.06716856    -0.18000
C642        C  0.13002024  0.45828952  0.07117034    -0.18000
C643        C  0.13110677  0.43799525  0.93792753    -0.18000
C644        C  0.99451941  0.43315503  0.93397098    -0.18000
H645        H  0.02378716  0.44726323  0.14162196     0.14900
H646        H  0.09835036  0.44974743  0.14369333     0.14900
H647        H  0.02736379  0.39655234  0.87018986     0.14900
H648        H  0.10190230  0.39882963  0.87276260     0.14900
H649        H  0.94757152  0.50762874  0.02610729     0.13200
H650        H  0.94740834  0.49630673  0.95550591     0.13200
H651        H  0.17324843  0.51572481  0.03250815     0.13200
H652        H  0.17355520  0.50539669  0.96175441     0.13200
H653        H  0.06160265  0.45880935  0.03236621     0.26500
H654        H  0.06209472  0.45465565  0.96814782     0.26500
N655        N  0.62504846  0.45349238  0.99831849    -0.36300
N656        N  0.57763937  0.38482095  0.00967763    -0.56900
N657        N  0.51375966  0.43581108  0.01775045    -0.36300
N658        N  0.56035513  0.50369921  0.01011902    -0.56900
C659        C  0.65125791  0.42585054  0.00554946     0.27300
C660        C  0.64158059  0.48873522  0.00470119     0.27300
C661        C  0.50564167  0.40271211  0.03541178     0.27300
C662        C  0.49511027  0.46428462  0.03474814     0.27300
C663        C  0.61003432  0.36652518  0.00215787     0.35900
C664        C  0.54924378  0.35819730  0.00862187     0.35900
C665        C  0.58517745  0.53016046  0.99769773     0.35900
C666        C  0.52566122  0.51950750  0.00737556     0.35900
C667        C  0.68424743  0.44460869  0.01688405    -0.21600
C668        C  0.67832406  0.48356223  0.01580522    -0.21600
C669        C  0.48345193  0.41060072  0.06541176    -0.21600
C670        C  0.47639156  0.44950513  0.06472036    -0.21600
C671        C  0.60214437  0.32748126  0.99791908    -0.22600
C672        C  0.56358218  0.32247014  0.00069033    -0.22600
C673        C  0.56547944  0.56291761  0.98710448    -0.22600
C674        C  0.52806066  0.55604794  0.99317444    -0.22600
C675        C  0.64656748  0.38439127  0.00181895    -0.18000
C676        C  0.62519375  0.52583715  0.99995641    -0.18000
C677        C  0.49260062  0.50219299  0.02079765    -0.18000
C678        C  0.51199199  0.36574086  0.02007252    -0.18000
H679        H  0.71011358  0.43261415  0.02663156     0.14900
H680        H  0.69880530  0.50557209  0.02317468     0.14900
H681        H  0.47207242  0.39017031  0.08476849     0.14900
H682        H  0.45935327  0.46489842  0.08404884     0.14900
H683        H  0.62205149  0.30456290  0.99480295     0.13200
H684        H  0.54839391  0.29535457  0.00004303     0.13200
H685        H  0.57571954  0.58939263  0.97582121     0.13200
H686        H  0.50548080  0.57619237  0.98877072     0.13200
H687        H  0.59825463  0.44876336  0.98708954     0.26500
H688        H  0.52700452  0.43801100  0.99241404     0.26500
N689        N  0.06838723  0.42104524  0.55133749    -0.36300
N690        N  0.06490049  0.38209575  0.47991019    -0.56900
N691        N  0.06742961  0.45659144  0.44240295    -0.36300
N692        N  0.06592422  0.49590067  0.51411873    -0.56900
C693        C  0.05841982  0.38448345  0.56041880     0.27300
C694        C  0.05636576  0.44496939  0.57828677     0.27300
C695        C  0.05516672  0.43281048  0.41468162     0.27300
C696        C  0.05859558  0.49336036  0.43292768     0.27300
C697        C  0.07411885  0.35202571  0.50210838     0.35900
C698        C  0.07065941  0.37055392  0.44467627     0.35900
C699        C  0.07644117  0.50583296  0.54913712     0.35900
C700        C  0.07842258  0.52430892  0.49160754     0.35900
C701        C  0.03919701  0.38485726  0.59292747    -0.21600
C702        C  0.03698011  0.42271434  0.60374366    -0.21600
C703        C  0.03803864  0.45528993  0.38761664    -0.21600
C704        C  0.04043602  0.49306539  0.39901352    -0.21600
C705        C  0.08578300  0.32159764  0.48046412    -0.22600
C706        C  0.08343672  0.33328044  0.44445280    -0.22600
C707        C  0.09597807  0.54027748  0.54880769    -0.22600
C708        C  0.09790853  0.55152863  0.51268047    -0.22600
C709        C  0.06806599  0.35073182  0.54097601    -0.18000
C710        C  0.06668350  0.48512704  0.58137434    -0.18000
C711        C  0.06851242  0.52721958  0.45321518    -0.18000
C712        C  0.06190949  0.39205271  0.41252953    -0.18000
H713        H  0.02730579  0.36053824  0.60717831     0.14900
H714        H  0.02153174  0.43165380  0.62741278     0.14900
H715        H  0.02421847  0.44644077  0.36235554     0.14900
H716        H  0.02981785  0.51738985  0.38383392     0.14900
H717        H  0.09478617  0.29346754  0.48872539     0.13200
H718        H  0.09008302  0.31590970  0.42090879     0.13200
H719        H  0.10869645  0.55546681  0.57179309     0.13200
H720        H  0.11369010  0.57619163  0.50366092     0.13200
H721        H  0.08634316  0.42860524  0.53016106     0.26500
H722        H  0.08428810  0.44869862  0.46489023     0.26500
N723        N  0.60340455  0.92325410  0.50079948    -0.36300
N724        N  0.54590723  0.93646613  0.55704489    -0.56900
N725        N  0.48886784  0.93779598  0.49707522    -0.36300
N726        N  0.54497567  0.93247582  0.44160995    -0.56900
C727        C  0.62531369  0.92779878  0.53176548     0.27300
C728        C  0.62483613  0.93015671  0.47081968     0.27300
C729        C  0.47371627  0.95568293  0.52626024     0.27300
C730        C  0.47253471  0.95209920  0.46611166     0.27300
C731        C  0.57366030  0.91793948  0.57571158     0.35900
C732        C  0.51323301  0.92764919  0.57404520     0.35900
C733        C  0.57446370  0.91694301  0.42425772     0.35900
C734        C  0.51347914  0.92248708  0.42194221     0.35900
C735        C  0.66165099  0.93596754  0.52103868    -0.21600
C736        C  0.66119373  0.93829159  0.48282715    -0.21600
C737        C  0.44916944  0.98364488  0.51358665    -0.21600
C738        C  0.44820093  0.98120016  0.47567079    -0.21600
C739        C  0.55789360  0.89666856  0.60391926    -0.22600
C740        C  0.52000896  0.90340907  0.60327552    -0.22600
C741        C  0.56126209  0.89624785  0.39375717    -0.22600
C742        C  0.52287810  0.90040090  0.39191327    -0.22600
C743        C  0.61298970  0.92267660  0.56886925    -0.18000
C744        C  0.61281208  0.92652174  0.43303005    -0.18000
C745        C  0.47705043  0.93539550  0.43063735    -0.18000
C746        C  0.47761429  0.94160107  0.56287928    -0.18000
H747        H  0.68636085  0.93838332  0.53844795     0.14900
H748        H  0.68526468  0.94354244  0.46577279     0.14900
H749        H  0.43310682  0.00355662  0.52970644     0.14900
H750        H  0.43128168  0.99893770  0.45759682     0.14900
H751        H  0.57103072  0.87598102  0.62172989     0.13200
H752        H  0.49982528  0.89021760  0.62114390     0.13200
H753        H  0.57735538  0.87965720  0.37456055     0.13200
H754        H  0.50445930  0.88860792  0.37068367     0.13200
H755        H  0.57564241  0.91364403  0.50014470     0.26500
H756        H  0.50537834  0.91316176  0.49841567     0.26500
C757        C  0.70481797  0.57314870  0.94364955    -0.26000
C758        C  0.66952811  0.59080917  0.94314297    -0.14100
C759        C  0.66217858  0.61923006  0.91604759     0.36500
C760        C  0.69179667  0.63411091  0.89548649    -0.25500
C761        C  0.72843400  0.61997854  0.89958368    -0.14700
C762        C  0.73450853  0.58801429  0.92287846     0.37600
N763        N  0.77105992  0.57156209  0.92688125    -0.89000
H764        H  0.71046716  0.54979855  0.96258518     0.18700
H765        H  0.68586352  0.65683428  0.87588386     0.18700
N766        N  0.62525065  0.63445894  0.90959252    -0.88000
H767        H  0.76897846  0.54244282  0.91984440     0.36100
H768        H  0.77935037  0.57344109  0.95463813     0.41200
H769        H  0.60535903  0.61900801  0.92437649     0.40800
H770        H  0.61817231  0.62962211  0.88184897     0.35700
C771        C  0.71331571  0.89374975  0.64359672    -0.26000
C772        C  0.68841151  0.87540077  0.61813413    -0.14100
C773        C  0.69678839  0.83807114  0.60596652     0.36500
C774        C  0.72746860  0.81858297  0.62214906    -0.25500
C775        C  0.74838167  0.83503655  0.65162606    -0.14700
C776        C  0.74247773  0.87355714  0.66121493     0.37600
N777        N  0.76419187  0.89096687  0.69072424    -0.89000
H778        H  0.70660780  0.92200922  0.65389525     0.18700
H779        H  0.73224725  0.78884013  0.61472672     0.18700
N780        N  0.67243412  0.81903109  0.57947931    -0.88000
H781        H  0.75586312  0.91937893  0.69494061     0.36100
H782        H  0.79209904  0.89220677  0.68245713     0.41200
H783        H  0.64635393  0.81482342  0.59160906     0.40800
H784        H  0.68258394  0.79169018  0.57334493     0.35700
C785        C  0.71516966  0.29765093  0.90138356    -0.26000
C786        C  0.75140992  0.30562878  0.88833287    -0.14100
C787        C  0.76948926  0.33981851  0.90059980     0.36500
C788        C  0.75269553  0.36299026  0.92727082    -0.25500
C789        C  0.71862531  0.35241713  0.94388535    -0.14700
C790        C  0.69829564  0.32115690  0.92809413     0.37600
N791        N  0.66069071  0.31314285  0.93906299    -0.89000
H792        H  0.69964963  0.27300020  0.89059491     0.18700
H793        H  0.76785136  0.38845456  0.93667210     0.18700
N794        N  0.80523891  0.35116096  0.88659857    -0.88000
H795        H  0.64987155  0.28875476  0.92549745     0.36100
H796        H  0.64425341  0.33628545  0.93038117     0.41200
H797        H  0.82438349  0.35325384  0.90875967     0.40800
H798        H  0.80257297  0.37846654  0.87488153     0.35700
C799        C  0.63543144  0.00625821  0.66775653    -0.26000
C800        C  0.64993761  0.98400516  0.63896550    -0.14100
C801        C  0.68587847  0.99389526  0.62597077     0.36500
C802        C  0.70754684  0.02253351  0.64393531    -0.25500
C803        C  0.69436646  0.04230567  0.67482886    -0.14700
C804        C  0.65705065  0.03504396  0.68583826     0.37600
N805        N  0.64106438  0.05668044  0.71532725    -0.89000
H806        H  0.60745102  0.99991726  0.67734708     0.18700
H807        H  0.73538349  0.02869262  0.63387070     0.18700
N808        N  0.70139176  0.97433186  0.59528787    -0.88000
H809        H  0.61391139  0.04684766  0.72075917     0.36100
H810        H  0.63839620  0.08510194  0.70637493     0.41200
H811        H  0.72706842  0.96253048  0.60358799     0.40800
H812        H  0.70693477  0.99481806  0.57502264     0.35700
C813        C  0.98834867  0.26679691  0.64399526    -0.26000
C814        C  0.95263952  0.25702198  0.63062214    -0.14100
C815        C  0.94349432  0.26365947  0.59295587     0.36500
C816        C  0.97094052  0.27808672  0.56929268    -0.25500
C817        C  0.00760076  0.28586662  0.58226893    -0.14700
C818        C  0.01599287  0.28000118  0.62017867     0.37600
N819        N  0.05332894  0.28456316  0.63440353    -0.89000
H820        H  0.99559362  0.26195179  0.67275989     0.18700
H821        H  0.96417779  0.28124079  0.54021370     0.18700
N822        N  0.90658662  0.25616674  0.57803550    -0.88000
H823        H  0.06220396  0.25809389  0.64488980     0.36100
H824        H  0.05279196  0.30420420  0.65623752     0.41200
H825        H  0.88730234  0.27157458  0.59344823     0.40800
H826        H  0.90057325  0.22682386  0.58038374     0.35700
C827        C  0.01353589  0.52381510  0.69717020    -0.26000
C828        C  0.01777200  0.51731880  0.65905246    -0.14100
C829        C  0.99508080  0.53840043  0.63414906     0.36500
C830        C  0.97090222  0.56680045  0.64739043    -0.25500
C831        C  0.96797796  0.57400212  0.68533049    -0.14700
C832        C  0.98887182  0.55147961  0.71034798     0.37600
N833        N  0.98594726  0.55724689  0.74930095    -0.89000
H834        H  0.03042434  0.50873517  0.71740977     0.18700
H835        H  0.95382971  0.58283260  0.62785450     0.18700
N836        N  0.99678731  0.53149219  0.59534042    -0.88000
H837        H  0.01260398  0.56429660  0.76000943     0.36100
H838        H  0.97746280  0.53123365  0.76108480     0.41200
H839        H  0.00446752  0.55721586  0.58253566     0.40800
H840        H  0.96989486  0.52372847  0.58574463     0.35700
C841        C  0.42953653  0.58888971  0.90102531    -0.26000
C842        C  0.39773955  0.60886237  0.91279497    -0.14100
C843        C  0.38577727  0.60431379  0.94914418     0.36500
C844        C  0.40400876  0.57759896  0.97216524    -0.25500
C845        C  0.43318685  0.55439798  0.95906756    -0.14700
C846        C  0.44696180  0.56130494  0.92375252     0.37600
N847        N  0.47733867  0.53899041  0.91029089    -0.89000
H848        H  0.43905877  0.59250756  0.87306596     0.18700
H849        H  0.39320713  0.57263056  0.99935567     0.18700
N850        N  0.35419200  0.62558446  0.96192153    -0.88000
H851        H  0.49896966  0.55793846  0.90318276     0.36100
H852        H  0.46803307  0.52475356  0.88635314     0.41200
H853        H  0.36162634  0.65475543  0.96159554     0.40800
H854        H  0.34870654  0.61868447  0.98932076     0.35700
C855        C  0.16319856  0.54008004  0.65724400    -0.26000
C856        C  0.12637320  0.54226037  0.64296979    -0.14100
C857        C  0.10754046  0.57793523  0.64641627     0.36500
C858        C  0.12403256  0.60818657  0.66735663    -0.25500
C859        C  0.15850560  0.60346580  0.68603862    -0.14700
C860        C  0.17885271  0.56938110  0.67931861     0.37600
N861        N  0.21545469  0.56319020  0.69482595    -0.89000
H862        H  0.17887409  0.51378336  0.65387684     0.18700
H863        H  0.10885405  0.63481645  0.67049767     0.18700
N864        N  0.07125435  0.58356701  0.62988159    -0.88000
H865        H  0.21327392  0.56211112  0.72337769     0.36100
H866        H  0.23284239  0.58610904  0.68745636     0.41200
H867        H  0.07318783  0.60653655  0.61146402     0.40800
H868        H  0.05308125  0.59175169  0.65067579     0.35700
C869        C  0.40197994  0.83887296  0.61163428    -0.26000
C870        C  0.42097250  0.87431952  0.61610898    -0.14100
C871        C  0.42404886  0.88985072  0.65236393     0.36500
C872        C  0.40402002  0.87281405  0.68128751    -0.25500
C873        C  0.38060277  0.84074125  0.67502521    -0.14700
C874        C  0.38125151  0.82261797  0.64008558     0.37600
N875        N  0.36131715  0.78744215  0.63258196    -0.89000
H876        H  0.40101242  0.82489819  0.58491310     0.18700
H877        H  0.40594436  0.88547621  0.70858863     0.18700
N878        N  0.44692657  0.92306145  0.66024464    -0.88000
H879        H  0.33269943  0.79237039  0.63544272     0.36100
H880        H  0.37001468  0.76687650  0.65178936     0.41200
H881        H  0.46759279  0.91517074  0.67956228     0.40800
H882        H  0.43019252  0.94361946  0.67279113     0.35700
C883        C  0.17986439  0.09388049  0.61898766    -0.26000
C884        C  0.21643688  0.09994308  0.60642808    -0.14100
C885        C  0.22741473  0.08109999  0.57397792     0.36500
C886        C  0.20010677  0.06239107  0.55173238    -0.25500
C887        C  0.16206480  0.06168943  0.56159414    -0.14700
C888        C  0.15302363  0.07355942  0.59770708     0.37600
N889        N  0.11587249  0.06883386  0.61188104    -0.89000
H890        H  0.17173163  0.10603858  0.64514248     0.18700
H891        H  0.20816993  0.05198268  0.52503436     0.18700
N892        N  0.26530810  0.08281935  0.56169804    -0.88000
H893        H  0.11824474  0.05273319  0.63609793     0.36100
H894        H  0.09910796  0.05232597  0.59380042     0.41200
H895        H  0.28258825  0.07038751  0.58193037     0.40800
H896        H  0.27313727  0.11169432  0.55890714     0.35700
C897        C  0.18009403  0.25848732  0.61902060    -0.26000
C898        C  0.16963993  0.27302444  0.65349794    -0.14100
C899        C  0.14398574  0.30379356  0.65419701     0.36500
C900        C  0.12598545  0.31558679  0.62097750    -0.25500
C901        C  0.13120265  0.29534604  0.58786960    -0.14700
C902        C  0.16191736  0.27010638  0.58620459     0.37600
N903        N  0.17305723  0.25473868  0.55132427    -0.89000
H904        H  0.20191015  0.23706941  0.61772197     0.18700
H905        H  0.10448544  0.33732373  0.62198011     0.18700
N906        N  0.13438020  0.32119236  0.68863201    -0.88000
H907        H  0.19591628  0.23639352  0.55478309     0.36100
H908        H  0.18221280  0.27781169  0.53529046     0.41200
H909        H  0.12067508  0.30027455  0.70420503     0.40800
H910        H  0.11515277  0.34334264  0.68430906     0.35700
C911        C  0.40874016  0.02964244  0.65727106    -0.26000
C912        C  0.37283230  0.02226060  0.67128580    -0.14100
C913        C  0.35103479  0.99209231  0.65595997     0.36500
C914        C  0.36442676  0.97122571  0.62599467    -0.25500
C915        C  0.39944835  0.98001452  0.61045656    -0.14700
C916        C  0.42208562  0.00884167  0.62700488     0.37600
N917        N  0.45832323  0.01753776  0.61269240    -0.89000
H918        H  0.42563707  0.05320879  0.66836885     0.18700
H919        H  0.34728079  0.94773844  0.61517701     0.18700
N920        N  0.31509079  0.98272692  0.67066312    -0.88000
H921        H  0.47827059  0.01366273  0.63384961     0.36100
H922        H  0.45882481  0.04652587  0.60511456     0.41200
H923        H  0.31552550  0.95395923  0.67900880     0.40800
H924        H  0.29493365  0.98529141  0.64949355     0.35700
C925        C  0.44043573  0.33758886  0.91128366    -0.26000
C926        C  0.45479889  0.32287654  0.94475146    -0.14100
C927        C  0.44958212  0.28303812  0.95141708     0.36500
C928        C  0.42606690  0.26072855  0.92751064    -0.25500
C929        C  0.40687936  0.27749999  0.89732047    -0.14700
C930        C  0.41571805  0.31621292  0.88860224     0.37600
N931        N  0.40002686  0.33493520  0.85680812    -0.89000
H932        H  0.44561695  0.36746053  0.90436890     0.18700
H933        H  0.42178233  0.23047556  0.93337334     0.18700
N934        N  0.46738079  0.26510896  0.98253129    -0.88000
H935        H  0.37096426  0.33667166  0.85959535     0.36100
H936        H  0.40595178  0.31866439  0.83342576     0.41200
H937        H  0.48472802  0.24343246  0.97274713     0.40800
H938        H  0.44654031  0.25193287  0.99809398     0.35700
C939        C  0.71469905  0.60041537  0.11799546    -0.26000
C940        C  0.74775627  0.61229292  0.10068483    -0.14100
C941        C  0.75193377  0.60434208  0.06304045     0.36500
C942        C  0.72171226  0.58745945  0.04287925    -0.25500
C943        C  0.68710293  0.57868182  0.05939545    -0.14700
C944        C  0.68464149  0.58328859  0.09801576     0.37600
N945        N  0.65114514  0.57327165  0.11735418    -0.89000
H946        H  0.71164552  0.60580255  0.14720701     0.18700
H947        H  0.72399085  0.58517145  0.01348360     0.18700
N948        N  0.78586230  0.61548833  0.04498144    -0.88000
H949        H  0.65847777  0.55261898  0.13705360     0.36100
H950        H  0.63142634  0.55994008  0.09973776     0.41200
H951        H  0.78777871  0.64551312  0.04577652     0.40800
H952        H  0.78448340  0.60766879  0.01715585     0.35700
C953        C  0.94401770  0.62464341  0.39626701    -0.26000
C954        C  0.95696278  0.62937174  0.36021058    -0.14100
C955        C  0.99108336  0.61241079  0.35042729     0.36500
C956        C  0.01304709  0.59406641  0.37776708    -0.25500
C957        C  0.00119668  0.59134859  0.41456205    -0.14700
C958        C  0.96544109  0.60531265  0.42318097     0.37600
N959        N  0.95139018  0.60104392  0.45965680    -0.89000
H960        H  0.91710633  0.63632774  0.40370859     0.18700
H961        H  0.04047882  0.58375948  0.37053824     0.18700
N962        N  0.00445058  0.61593458  0.31348859    -0.88000
H963        H  0.92596641  0.58582363  0.45777314     0.36100
H964        H  0.94583614  0.62843943  0.47004633     0.41200
H965        H  0.98664934  0.59946755  0.29633960     0.40800
H966        H  0.03112030  0.60392158  0.31145542     0.35700
C967        C  0.67124611  0.91199983  0.31253793    -0.26000
C968        C  0.66192670  0.90319706  0.34933518    -0.14100
C969        C  0.68315696  0.87490587  0.36784032     0.36500
C970        C  0.71153450  0.85517915  0.34918973    -0.25500
C971        C  0.71920096  0.86283901  0.31194921    -0.14700
C972        C  0.69921844  0.89209653  0.29391277     0.37600
N973        N  0.70756366  0.90212477  0.25669555    -0.89000
H974        H  0.65738045  0.93492540  0.29773505     0.18700
H975        H  0.72657405  0.83258828  0.36355011     0.18700
N976        N  0.67566021  0.86563800  0.40540191    -0.88000
H977        H  0.71536365  0.93119573  0.25622296     0.36100
H978        H  0.68301118  0.89874751  0.24069270     0.41200
H979        H  0.66885312  0.83636455  0.40676403     0.40800
H980        H  0.70029368  0.87035955  0.42097944     0.35700
C981        C  0.64831663  0.12631812  0.14642412    -0.26000
C982        C  0.65150777  0.10715745  0.18039137    -0.14100
C983        C  0.63692534  0.06912989  0.18254311     0.36500
C984        C  0.61621836  0.05339783  0.15218680    -0.25500
C985        C  0.60886151  0.07510192  0.12025349    -0.14700
C986        C  0.62844673  0.11035464  0.11637058     0.37600
N987        N  0.62903614  0.12992265  0.08167405    -0.89000
H988        H  0.66136397  0.15425005  0.14279824     0.18700
H989        H  0.60477503  0.02457453  0.15402706     0.18700
N990        N  0.64252881  0.04679519  0.21541038    -0.88000
H991        H  0.65695548  0.13218738  0.07355799     0.36100
H992        H  0.61906496  0.15780588  0.08555194     0.41200
H993        H  0.67119248  0.04092172  0.21780928     0.40800
H994        H  0.62880611  0.02015765  0.21291988     0.35700
C995        C  0.68456364  0.31697532  0.09503460    -0.26000
C996        C  0.68747580  0.31477355  0.05660129    -0.14100
C997        C  0.69979824  0.27990699  0.04084775     0.36500
C998        C  0.71356106  0.25029049  0.06355205    -0.25500
C999        C  0.71498318  0.25481263  0.10179572    -0.14700
C1000       C  0.69829353  0.28747318  0.11770014     0.37600
N1001       N  0.69707573  0.29240905  0.15685703    -0.89000
H1002       H  0.67566921  0.34358740  0.10762775     0.18700
H1003       H  0.72559809  0.22497934  0.05115480     0.18700
N1004       N  0.70235448  0.27616138  0.00176037    -0.88000
H1005       H  0.72452221  0.29221250  0.16757341     0.36100
H1006       H  0.68245402  0.26900906  0.16782363     0.41200
H1007       H  0.68678641  0.25186412  0.99353569     0.40800
H1008       H  0.73043996  0.27153146  0.99538670     0.35700
C1009       C  0.70470901  0.98446801  0.38509750    -0.26000
C1010       C  0.67145920  0.00236435  0.39653883    -0.14100
C1011       C  0.66926845  0.04292116  0.39408278     0.36500
C1012       C  0.69641393  0.06319165  0.37436765    -0.25500
C1013       C  0.72640714  0.04418361  0.35804504    -0.14700
C1014       C  0.73199439  0.00498125  0.36529026     0.37600
N1015       N  0.76363218  0.98564415  0.35015022    -0.89000
H1016       H  0.70777820  0.95374856  0.38826060     0.18700
H1017       H  0.69315312  0.09388940  0.37038767     0.18700
N1018       N  0.63872264  0.06393381  0.40940611    -0.88000
H1019       H  0.76296351  0.95644044  0.35693269     0.36100
H1020       H  0.78786536  0.99726998  0.36273181     0.41200
H1021       H  0.62108099  0.04583288  0.42430235     0.40800
H1022       H  0.62284888  0.07539832  0.38759158     0.35700
C1023       C  0.18593304  0.56515929  0.18795829    -0.26000
C1024       C  0.21183537  0.54208585  0.20720799    -0.14100
C1025       C  0.21005908  0.50194887  0.20231869     0.36500
C1026       C  0.18639130  0.48630374  0.17470489    -0.25500
C1027       C  0.16673472  0.51041305  0.14992217    -0.14700
C1028       C  0.16305780  0.54964545  0.15951727     0.37600
N1029       N  0.14016856  0.57517326  0.13784004    -0.89000
H1030       H  0.18613265  0.59600416  0.19243414     0.18700
H1031       H  0.18865313  0.45596389  0.16882758     0.18700
N1032       N  0.23357799  0.47675749  0.22346425    -0.88000
H1033       H  0.12050172  0.58712665  0.15540718     0.36100
H1034       H  0.12468094  0.55969281  0.11791590     0.41200
H1035       H  0.22812245  0.48117206  0.25134638     0.40800
H1036       H  0.26159595  0.48418395  0.21896533     0.35700
C1037       C  0.37263906  0.52887106  0.07577752    -0.26000
C1038       C  0.40981939  0.53495544  0.06403530    -0.14100
C1039       C  0.42883555  0.56885168  0.07640120     0.36500
C1040       C  0.40997459  0.59592350  0.09813939    -0.25500
C1041       C  0.37269893  0.58997801  0.10880551    -0.14700
C1042       C  0.35398287  0.55603422  0.09726676     0.37600
N1043       N  0.31555683  0.54932022  0.10652720    -0.89000
H1044       H  0.35704488  0.50329630  0.06784346     0.18700
H1045       H  0.42497349  0.62141694  0.10774204     0.18700
N1046       N  0.46723192  0.57598443  0.06691871    -0.88000
H1047       H  0.31391195  0.52335885  0.12090023     0.36100
H1048       H  0.29982695  0.54627513  0.08202471     0.41200
H1049       H  0.48353412  0.55522672  0.08028846     0.40800
H1050       H  0.47657134  0.60267546  0.07703183     0.35700
C1051       C  0.10249448  0.64764161  0.39437782    -0.26000
C1052       C  0.10795907  0.60916063  0.40593093    -0.14100
C1053       C  0.12999600  0.58524963  0.38389496     0.36500
C1054       C  0.14687671  0.60038528  0.35202627    -0.25500
C1055       C  0.14288535  0.63933552  0.34172733    -0.14700
C1056       C  0.11993436  0.66293957  0.36338935     0.37600
N1057       N  0.11321869  0.70246437  0.35458689    -0.89000
H1058       H  0.08420302  0.66650309  0.40933390     0.18700
H1059       H  0.16448781  0.58185039  0.33589493     0.18700
N1060       N  0.13551498  0.54578863  0.39412493    -0.88000
H1061       H  0.10336977  0.70417513  0.32730977     0.36100
H1062       H  0.13837204  0.71792857  0.35750052     0.41200
H1063       H  0.15030596  0.54560166  0.41931120     0.40800
H1064       H  0.15233854  0.53191833  0.37505182     0.35700
C1065       C  0.41984333  0.90061136  0.33382310    -0.26000
C1066       C  0.42899099  0.87423321  0.36201963    -0.14100
C1067       C  0.42077133  0.83483189  0.35538872     0.36500
C1068       C  0.39715081  0.82448122  0.32533926    -0.25500
C1069       C  0.38173827  0.85245703  0.30177287    -0.14700
C1070       C  0.39514570  0.89049403  0.30478177     0.37600
N1071       N  0.38268807  0.91974999  0.27982286    -0.89000
H1072       H  0.42839735  0.93028308  0.33621849     0.18700
H1073       H  0.38911583  0.79470980  0.32166828     0.18700
N1074       N  0.43382607  0.80519338  0.37989863    -0.88000
H1075       H  0.35353294  0.92188753  0.28148681     0.36100
H1076       H  0.38913321  0.91112139  0.25309108     0.41200
H1077       H  0.45204530  0.81669500  0.40009443     0.40800
H1078       H  0.44995331  0.78633144  0.36447036     0.35700
C1079       C  0.19675879  0.08083110  0.44344741    -0.26000
C1080       C  0.15896244  0.09203527  0.44353553    -0.14100
C1081       C  0.14664270  0.11918362  0.41712164     0.36500
C1082       C  0.17240372  0.13655636  0.39347797    -0.25500
C1083       C  0.21066792  0.12715742  0.39481396    -0.14700
C1084       C  0.22263613  0.09819695  0.41951841     0.37600
N1085       N  0.26124446  0.08723564  0.42137328    -0.89000
H1086       H  0.20678922  0.05981109  0.46308261     0.18700
H1087       H  0.16214475  0.15737939  0.37360310     0.18700
N1088       N  0.10783951  0.12946282  0.41429464    -0.88000
H1089       H  0.26257183  0.05769760  0.41620755     0.36100
H1090       H  0.27131222  0.09220075  0.44824948     0.41200
H1091       H  0.09816819  0.12300880  0.38756842     0.40800
H1092       H  0.10587943  0.15918531  0.41809604     0.35700
C1093       C  0.47776414  0.05710237  0.18042198    -0.26000
C1094       C  0.44496203  0.07511552  0.16790920    -0.14100
C1095       C  0.43231917  0.06807763  0.13145511     0.36500
C1096       C  0.45532033  0.04843505  0.10684056    -0.25500
C1097       C  0.49213918  0.03786450  0.11723015    -0.14700
C1098       C  0.50149564  0.03857252  0.15539785     0.37600
N1099       N  0.53566209  0.02233566  0.16895125    -0.89000
H1100       H  0.48646092  0.05984049  0.20909887     0.18700
H1101       H  0.44638935  0.04630058  0.07816767     0.18700
N1102       N  0.39654529  0.08198485  0.11900111    -0.88000
H1103       H  0.54982352  0.04361639  0.18431639     0.36100
H1104       H  0.52873964  0.00029361  0.18721631     0.41200
H1105       H  0.38054648  0.05846224  0.10950343     0.40800
H1106       H  0.40087016  0.10042229  0.09675050     0.35700
C1107       C  0.20978935  0.35897109  0.14758671    -0.26000
C1108       C  0.24846694  0.35208165  0.14392705    -0.14100
C1109       C  0.26792344  0.37370740  0.11714274     0.36500
C1110       C  0.24924397  0.40260651  0.09714308    -0.25500
C1111       C  0.21129430  0.41186564  0.10322439    -0.14700
C1112       C  0.19114281  0.38792306  0.12740380     0.37600
N1113       N  0.15175639  0.39299190  0.13218742    -0.89000
H1114       H  0.19354721  0.34162872  0.16635504     0.18700
H1115       H  0.26531742  0.41856158  0.07726414     0.18700
N1116       N  0.30690782  0.36806047  0.11015290    -0.88000
H1117       H  0.14716297  0.39801137  0.16013281     0.36100
H1118       H  0.13802927  0.36730599  0.12480762     0.41200
H1119       H  0.31049644  0.34028596  0.09987972     0.40800
H1120       H  0.32216962  0.37131306  0.13489226     0.35700
C1121       C  0.42953656  0.25547294  0.09007321    -0.26000
C1122       C  0.39015336  0.25136212  0.08654614    -0.14100
C1123       C  0.37055745  0.27643034  0.06274446     0.36500
C1124       C  0.39009984  0.30546688  0.04422398    -0.25500
C1125       C  0.42919211  0.31139587  0.04907447    -0.14700
C1126       C  0.44918970  0.28537368  0.07178013     0.37600
N1127       N  0.48913755  0.28961743  0.07657230    -0.89000
H1128       H  0.44479847  0.23646171  0.10848348     0.18700
H1129       H  0.37412045  0.32338220  0.02549379     0.18700
N1130       N  0.33055070  0.27252678  0.05756427    -0.88000
H1131       H  0.49969215  0.26812067  0.09388841     0.36100
H1132       H  0.49436513  0.31582675  0.08998817     0.41200
H1133       H  0.32523583  0.24603357  0.04471114     0.40800
H1134       H  0.32011751  0.29367395  0.03977985     0.35700
C1135       C  0.39614893  0.02065804  0.34007487    -0.26000
C1136       C  0.35706807  0.01947097  0.33419906    -0.14100
C1137       C  0.33547008  0.99497373  0.35627558     0.36500
C1138       C  0.35313549  0.97169573  0.38291580    -0.25500
C1139       C  0.39257556  0.97224623  0.38881509    -0.14700
C1140       C  0.41396702  0.99812148  0.36709594     0.37600
N1141       N  0.45379543  0.00280815  0.37169388    -0.89000
H1142       H  0.41314573  0.04040550  0.32427835     0.18700
H1143       H  0.33525704  0.95261677  0.39826280     0.18700
N1144       N  0.29548632  0.99315387  0.35145065    -0.88000
H1145       H  0.46730979  0.97761199  0.36407518     0.36100
H1146       H  0.46013541  0.00939107  0.39919806     0.41200
H1147       H  0.28343207  0.00018300  0.37657534     0.40800
H1148       H  0.28789047  0.96476432  0.34499199     0.35700
C1149       C  0.00717085  0.30815856  0.36133897    -0.26000
C1150       C  0.00204383  0.34624472  0.34930100    -0.14100
C1151       C  0.97118375  0.35379687  0.32566510     0.36500
C1152       C  0.95102378  0.32332986  0.30921061    -0.25500
C1153       C  0.95996796  0.28474143  0.31644131    -0.14700
C1154       C  0.98715960  0.27707869  0.34476420     0.37600
N1155       N  0.99662639  0.23879096  0.35640528    -0.89000
H1156       H  0.02857926  0.30205094  0.38195125     0.18700
H1157       H  0.92839748  0.33009806  0.28993946     0.18700
N1158       N  0.96106821  0.39262926  0.31722457    -0.88000
H1159       H  0.02512686  0.23480575  0.35133309     0.36100
H1160       H  0.98245602  0.21789488  0.34087174     0.41200
H1161       H  0.93337849  0.39661586  0.32528543     0.40800
H1162       H  0.96180809  0.39616693  0.28864320     0.35700
C1163       C  0.17800078  0.33142714  0.31514623    -0.26000
C1164       C  0.16428513  0.29370580  0.31008230    -0.14100
C1165       C  0.13202000  0.28198862  0.32886110     0.36500
C1166       C  0.11161550  0.30950930  0.34848104    -0.25500
C1167       C  0.12333935  0.34832412  0.35086103    -0.14700
C1168       C  0.15865029  0.35841182  0.33624543     0.37600
N1169       N  0.17435041  0.39648530  0.34029299    -0.89000
H1170       H  0.20396753  0.34012735  0.30237676     0.18700
H1171       H  0.08480042  0.30108944  0.35891715     0.18700
N1172       N  0.11893630  0.24280376  0.32626449    -0.88000
H1173       H  0.20036744  0.39386699  0.35387259     0.36100
H1174       H  0.15802227  0.41326539  0.35754633     0.41200
H1175       H  0.11086682  0.23756636  0.29884757     0.40800
H1176       H  0.09500606  0.23875458  0.34204563     0.35700
C1177       C  0.49916434  0.81192951  0.87214847    -0.26000
C1178       C  0.49914632  0.84649659  0.85235844    -0.14100
C1179       C  0.47049672  0.85200333  0.82536729     0.36500
C1180       C  0.45003020  0.82017048  0.81222621    -0.25500
C1181       C  0.45565148  0.78328894  0.82700235    -0.14700
C1182       C  0.47855604  0.77970498  0.85914760     0.37600
N1183       N  0.48262292  0.74323727  0.87729654    -0.89000
H1184       H  0.51875798  0.80836926  0.89487263     0.18700
H1185       H  0.43022594  0.82437113  0.78960471     0.18700
N1186       N  0.46363999  0.88889446  0.80883125    -0.88000
H1187       H  0.49949001  0.74608363  0.90109502     0.36100
H1188       H  0.49703737  0.72512029  0.85956828     0.41200
H1189       H  0.47906160  0.91033870  0.82276687     0.40800
H1190       H  0.43547589  0.89548583  0.81293940     0.35700
C1191       C  0.63829228  0.77122409  0.83376178    -0.26000
C1192       C  0.67272087  0.78307802  0.81975852    -0.14100
C1193       C  0.68483488  0.82154539  0.82521957     0.36500
C1194       C  0.66099386  0.84791946  0.84238938    -0.25500
C1195       C  0.62472018  0.83707822  0.85312128    -0.14700
C1196       C  0.61385703  0.79789003  0.84932430     0.37600
N1197       N  0.57669195  0.78552170  0.85772073    -0.89000
H1198       H  0.62914328  0.74157813  0.83030801     0.18700
H1199       H  0.66929073  0.87795581  0.84420519     0.18700
N1200       N  0.72093663  0.83390189  0.81246573    -0.88000
H1201       H  0.57858130  0.76283120  0.87649165     0.36100
H1202       H  0.56388594  0.77491417  0.83352324     0.41200
H1203       H  0.74138730  0.81897183  0.82756690     0.40800
H1204       H  0.72539898  0.86312016  0.81808117     0.35700
C1205       C  0.22037725  0.31648471  0.85795208    -0.26000
C1206       C  0.22907280  0.33862124  0.82688419    -0.14100
C1207       C  0.20925120  0.37302468  0.82080139     0.36500
C1208       C  0.18595482  0.38732761  0.84847028    -0.25500
C1209       C  0.18230203  0.36822399  0.88252143    -0.14700
C1210       C  0.19638538  0.33044441  0.88511744     0.37600
N1211       N  0.18839068  0.30725169  0.91662107    -0.89000
H1212       H  0.23343960  0.28872852  0.86188449     0.18700
H1213       H  0.17318644  0.41489747  0.84426420     0.18700
N1214       N  0.21395865  0.39506316  0.78792865    -0.88000
H1215       H  0.21385682  0.29948922  0.92921630     0.36100
H1216       H  0.17507066  0.28203251  0.90727316     0.41200
H1217       H  0.20603957  0.37778150  0.76540898     0.40800
H1218       H  0.24239316  0.40214517  0.78569888     0.35700
C1219       C  0.18811742  0.48895674  0.86427447    -0.26000
C1220       C  0.20782788  0.48187166  0.89748177    -0.14100
C1221       C  0.24098603  0.50339127  0.90502091     0.36500
C1222       C  0.25607686  0.52708911  0.87777270    -0.25500
C1223       C  0.23831360  0.53122224  0.84307589    -0.14700
C1224       C  0.20333905  0.51253260  0.83678820     0.37600
N1225       N  0.18328722  0.51681091  0.80245954    -0.89000
H1226       H  0.16117112  0.47522713  0.85892230     0.18700
H1227       H  0.28172853  0.54290438  0.88431153     0.18700
N1228       N  0.25897555  0.50244677  0.94065697    -0.88000
H1229       H  0.15681864  0.52792198  0.80794327     0.36100
H1230       H  0.17945804  0.48949288  0.79076374     0.41200
H1231       H  0.25949793  0.53039604  0.95136383     0.40800
H1232       H  0.28675682  0.49385063  0.93735473     0.35700
C1233       C  0.61832318  0.09267838  0.86094755    -0.26000
C1234       C  0.62023776  0.10850941  0.89679735    -0.14100
C1235       C  0.64207055  0.14215859  0.90255304     0.36500
C1236       C  0.65760679  0.16131733  0.87247016    -0.25500
C1237       C  0.65362184  0.14696956  0.83627206    -0.14700
C1238       C  0.63479112  0.11141707  0.83087961     0.37600
N1239       N  0.63179717  0.09433184  0.79499788    -0.89000
H1240       H  0.60248616  0.06641802  0.85567445     0.18700
H1241       H  0.67380682  0.18733401  0.87791588     0.18700
N1242       N  0.64911837  0.15691889  0.93894026    -0.88000
H1243       H  0.60331427  0.09066020  0.78826669     0.36100
H1244       H  0.64397154  0.06710779  0.79632341     0.41200
H1245       H  0.63964016  0.18528842  0.93977834     0.40800
H1246       H  0.67814409  0.15751510  0.94374577     0.35700
C1247       C  0.52553414  0.11840173  0.86561815    -0.26000
C1248       C  0.51479237  0.08555619  0.88584803    -0.14100
C1249       C  0.48232692  0.06478063  0.87418866     0.36500
C1250       C  0.46064771  0.07861531  0.84418899    -0.25500
C1251       C  0.47012572  0.11311836  0.82618320    -0.14700
C1252       C  0.50343894  0.13258662  0.83666925     0.37600
N1253       N  0.51519716  0.16727645  0.81885041    -0.89000
H1254       H  0.55023776  0.13487030  0.87380603     0.18700
H1255       H  0.43481357  0.06365522  0.83649889     0.18700
N1256       N  0.46947492  0.03095183  0.89302228    -0.88000
H1257       H  0.49495011  0.18835516  0.82268865     0.36100
H1258       H  0.51714180  0.16172790  0.79063963     0.41200
H1259       H  0.48732413  0.02393707  0.91510035     0.40800
H1260       H  0.47033316  0.00798102  0.87442064     0.35700
C1261       C  0.87140517  0.47235960  0.89101084    -0.26000
C1262       C  0.91083100  0.46796313  0.89256407    -0.14100
C1263       C  0.93268179  0.49060821  0.86842169     0.36500
C1264       C  0.91481620  0.51330465  0.84142051    -0.25500
C1265       C  0.87560125  0.51598345  0.83891135    -0.14700
C1266       C  0.85367141  0.49582765  0.86445704     0.37600
N1267       N  0.81342655  0.49861264  0.86292761    -0.89000
H1268       H  0.85377995  0.45684642  0.90980431     0.18700
H1269       H  0.93181567  0.53008751  0.82282794     0.18700
N1270       N  0.97300012  0.48999841  0.87064339    -0.88000
H1271       H  0.80135528  0.48215003  0.88371715     0.36100
H1272       H  0.80409936  0.48662298  0.83787602     0.41200
H1273       H  0.98118954  0.50306944  0.89551778     0.40800
H1274       H  0.98469229  0.50662287  0.84974619     0.35700
C1275       C  0.92869543  0.31545241  0.82764324    -0.26000
C1276       C  0.91283542  0.34148867  0.80236401    -0.14100
C1277       C  0.92182122  0.38074772  0.80548899     0.36500
C1278       C  0.94348244  0.39363512  0.83601929    -0.25500
C1279       C  0.95405345  0.36842973  0.86475413    -0.14700
C1280       C  0.94974715  0.32839305  0.85848489     0.37600
N1281       N  0.96399815  0.30047919  0.88420915    -0.89000
H1282       H  0.92304377  0.28491488  0.82442867     0.18700
H1283       H  0.94872395  0.42399982  0.83896239     0.18700
N1284       N  0.90665761  0.40761821  0.77925188    -0.88000
H1285       H  0.98000669  0.31388015  0.90508608     0.36100
H1286       H  0.98259503  0.28300500  0.87003800     0.41200
H1287       H  0.91841578  0.40157773  0.75376585     0.40800
H1288       H  0.91484521  0.43573085  0.78620765     0.35700
C1289       C  0.88934653  0.37158222  0.08686667    -0.26000
C1290       C  0.92044153  0.39271309  0.10088921    -0.14100
C1291       C  0.93512007  0.38216431  0.13588027     0.36500
C1292       C  0.91574458  0.35512661  0.15758635    -0.25500
C1293       C  0.88187270  0.33764730  0.14519312    -0.14700
C1294       C  0.86958222  0.34527524  0.10846384     0.37600
N1295       N  0.83710121  0.32709579  0.09193032    -0.89000
H1296       H  0.87865653  0.37732313  0.05927831     0.18700
H1297       H  0.92712157  0.34835719  0.18468907     0.18700
N1298       N  0.96957457  0.39857281  0.14974331    -0.88000
H1299       H  0.81335071  0.33491100  0.10650107     0.36100
H1300       H  0.84043811  0.29727442  0.09276646     0.41200
H1301       H  0.98873051  0.37625419  0.15328711     0.40800
H1302       H  0.96497391  0.41022421  0.17582487     0.35700
C1303       C  0.92863977  0.48871639  0.16304745    -0.26000
C1304       C  0.94529676  0.50799098  0.13335184    -0.14100
C1305       C  0.94753791  0.54843196  0.13396519     0.36500
C1306       C  0.92923708  0.56877927  0.16179592    -0.25500
C1307       C  0.90908765  0.54923305  0.18895901    -0.14700
C1308       C  0.91052735  0.50894367  0.19074017     0.37600
N1309       N  0.89125961  0.48787404  0.21857049    -0.89000
H1310       H  0.92464175  0.45796950  0.16195736     0.18700
H1311       H  0.92853333  0.59993004  0.16090104     0.18700
N1312       N  0.96484915  0.56849215  0.10409865    -0.88000
H1313       H  0.86277777  0.49473629  0.21691581     0.36100
H1314       H  0.90185976  0.49686379  0.24428555     0.41200
H1315       H  0.99332296  0.56145410  0.10464004     0.40800
H1316       H  0.96345551  0.59821960  0.10812753     0.35700
C1317       C  0.66546267  0.75675458  0.10377467    -0.26000
C1318       C  0.66524051  0.77091823  0.14005874    -0.14100
C1319       C  0.64107474  0.80167310  0.14812559     0.36500
C1320       C  0.61495026  0.81439241  0.12113634    -0.25500
C1321       C  0.61279395  0.79720653  0.08600738    -0.14700
C1322       C  0.64062225  0.77025178  0.07655027     0.37600
N1323       N  0.64342534  0.75468125  0.03995322    -0.89000
H1324       H  0.68536595  0.73488134  0.09617605     0.18700
H1325       H  0.59465729  0.83585203  0.12862259     0.18700
N1326       N  0.64173164  0.81895564  0.18397910    -0.88000
H1327       H  0.67057957  0.76052674  0.03098633     0.36100
H1328       H  0.62574308  0.76914001  0.02153148     0.41200
H1329       H  0.61500624  0.81592474  0.19501909     0.40800
H1330       H  0.64731291  0.84835296  0.18089259     0.35700
C1331       C  0.50290352  0.81075456  0.13163722    -0.26000
C1332       C  0.48924970  0.81150524  0.09480728    -0.14100
C1333       C  0.45137230  0.80029303  0.08800004     0.36500
C1334       C  0.43060498  0.78334381  0.11632174    -0.25500
C1335       C  0.44557818  0.77916186  0.15221802    -0.14700
C1336       C  0.48116585  0.79544343  0.16048752     0.37600
N1337       N  0.49587927  0.79463587  0.19761951    -0.89000
H1338       H  0.53176948  0.81881480  0.13750602     0.18700
H1339       H  0.40242892  0.77286475  0.11003894     0.18700
N1340       N  0.43418798  0.80293775  0.05190822    -0.88000
H1341       H  0.52239992  0.80777766  0.19910147     0.36100
H1342       H  0.49957932  0.76584022  0.20492624     0.41200
H1343       H  0.45202558  0.81690720  0.03366456     0.40800
H1344       H  0.41074001  0.82058429  0.05409389     0.35700
C1345       C  0.85239735  0.83060589  0.41685088    -0.26000
C1346       C  0.86658029  0.79361176  0.41034863    -0.14100
C1347       C  0.90136265  0.78377367  0.42708966     0.36500
C1348       C  0.91902621  0.80934515  0.45220953    -0.25500
C1349       C  0.90230170  0.84424260  0.46193437    -0.14700
C1350       C  0.87021867  0.85624739  0.44150657     0.37600
N1351       N  0.85409260  0.89365675  0.44634368    -0.89000
H1352       H  0.82703912  0.83999769  0.40270727     0.18700
H1353       H  0.94467739  0.80052547  0.46584842     0.18700
N1354       N  0.91856428  0.74761068  0.41951425    -0.88000
H1355       H  0.85378795  0.90723669  0.42067367     0.36100
H1356       H  0.87128098  0.91089571  0.46336827     0.41200
H1357       H  0.92186832  0.73278274  0.44438144     0.40800
H1358       H  0.94526377  0.75308382  0.40917820     0.35700
C1359       C  0.93522843  0.77409239  0.55065531    -0.26000
C1360       C  0.94134454  0.80791409  0.57157831    -0.14100
C1361       C  0.93761841  0.80556013  0.61018951     0.36500
C1362       C  0.91977521  0.77342340  0.62543193    -0.25500
C1363       C  0.90654339  0.74304560  0.60293081    -0.14700
C1364       C  0.91694987  0.74196783  0.56592589     0.37600
N1365       N  0.90618837  0.70990160  0.54312891    -0.89000
H1366       H  0.93895358  0.77452351  0.52129449     0.18700
H1367       H  0.91295750  0.77391960  0.65438203     0.18700
N1368       N  0.94756627  0.83735838  0.63375704    -0.88000
H1369       H  0.93055653  0.69855693  0.53198656     0.36100
H1370       H  0.88940888  0.72005507  0.52135274     0.41200
H1371       H  0.93202497  0.86140221  0.62585789     0.40800
H1372       H  0.97596909  0.84374257  0.63005826     0.35700
C1373       C  0.89396682  0.07391444  0.54597541    -0.26000
C1374       C  0.92693417  0.06967518  0.56785314    -0.14100
C1375       C  0.92543446  0.07900296  0.60582292     0.36500
C1376       C  0.89409851  0.09852756  0.61898991    -0.25500
C1377       C  0.86312269  0.10660116  0.59582782    -0.14700
C1378       C  0.86215504  0.09239361  0.55959497     0.37600
N1379       N  0.82973148  0.09854675  0.53622448    -0.89000
H1380       H  0.89384532  0.06561690  0.51725005     0.18700
H1381       H  0.89415754  0.10798071  0.64747827     0.18700
N1382       N  0.95574881  0.07055917  0.63121256    -0.88000
H1383       H  0.83348691  0.08619741  0.51027903     0.36100
H1384       H  0.82734424  0.12817402  0.53205093     0.41200
H1385       H  0.97607047  0.05395991  0.61850687     0.40800
H1386       H  0.94483863  0.05312257  0.65192833     0.35700
C1387       C  0.94338215  0.14686359  0.46286799    -0.26000
C1388       C  0.94697982  0.10662969  0.46632398    -0.14100
C1389       C  0.92318174  0.08277164  0.44428366     0.36500
C1390       C  0.89648298  0.09916976  0.42035080    -0.25500
C1391       C  0.89309699  0.13921049  0.41703147    -0.14700
C1392       C  0.91679512  0.16329532  0.43870432     0.37600
N1393       N  0.91378367  0.20443028  0.43617520    -0.89000
H1394       H  0.96057910  0.16612911  0.47951101     0.18700
H1395       H  0.87931014  0.08022328  0.40308802     0.18700
N1396       N  0.92611058  0.04175121  0.44557396    -0.88000
H1397       H  0.93348043  0.21810283  0.45364896     0.36100
H1398       H  0.88729936  0.21188186  0.44558786     0.41200
H1399       H  0.93209419  0.03182621  0.41914548     0.40800
H1400       H  0.90009436  0.03031610  0.45298298     0.35700
C1401       C  0.14671077  0.80528338  0.59028953    -0.26000
C1402       C  0.16431320  0.81948312  0.55884794    -0.14100
C1403       C  0.20416069  0.81974035  0.55835555     0.36500
C1404       C  0.22496319  0.80376764  0.58735536    -0.25500
C1405       C  0.20724987  0.78584141  0.61676635    -0.14700
C1406       C  0.16770173  0.78852115  0.61934262     0.37600
N1407       N  0.14889190  0.77335846  0.65089180    -0.89000
H1408       H  0.11630780  0.80416336  0.59069076     0.18700
H1409       H  0.25527612  0.80303413  0.58549916     0.18700
N1410       N  0.22450039  0.83305509  0.52736994    -0.88000
H1411       H  0.11989210  0.77715980  0.64821538     0.36100
H1412       H  0.15779942  0.78958185  0.67380123     0.41200
H1413       H  0.21870345  0.86212393  0.52412199     0.40800
H1414       H  0.21572556  0.81776238  0.50392515     0.35700
C1415       C  0.21601353  0.84346597  0.40082718    -0.26000
C1416       C  0.20091465  0.81852054  0.37397098    -0.14100
C1417       C  0.16146180  0.81534807  0.37001766     0.36500
C1418       C  0.13875316  0.82911627  0.39822945    -0.25500
C1419       C  0.15514901  0.84514897  0.43026819    -0.14700
C1420       C  0.19283048  0.85792602  0.42852916     0.37600
N1421       N  0.20815854  0.88358562  0.45583403    -0.89000
H1422       H  0.24596188  0.84916720  0.40214591     0.18700
H1423       H  0.10921910  0.82131552  0.39807387     0.18700
N1424       N  0.14492732  0.79592243  0.33856984    -0.88000
H1425       H  0.21467160  0.90939896  0.44260215     0.36100
H1426       H  0.23368666  0.87234749  0.46520421     0.41200
H1427       H  0.15169591  0.81192907  0.31522374     0.40800
H1428       H  0.11565665  0.79577434  0.34000494     0.35700
loop_ 
_geom_bond_atom_site_label_1 
_geom_bond_atom_site_label_2 
_geom_bond_distance 
_geom_bond_site_symmetry_2 
_ccdc_geom_bond_type 
N1            C5   1.364       .  A
N1            C2   1.370       .  A
N1          C573   1.461       .  S
C2            C3   1.382       .  A
C2         C1402   1.482       .  S
C3            C4   1.357       .  A
C3            H6   1.083       .  S
C4            C5   1.382       .  A
C4            H7   1.083       .  S
C5         C1419   1.483       .  S
N8           C12   1.359       .  A
N8            C9   1.362       .  A
N8          C575   1.467       .  S
C9           C10   1.390       .  A
C9         C1374   1.502       .  S
C10          C11   1.367       .  A
C10          H13   1.082       .  S
C11          C12   1.386       .  A
C11          H14   1.081   1_655  S
C12        C1388   1.500       .  S
N15          C19   1.368       .  A
N15          C16   1.366       .  A
N15         C576   1.467       .  S
C16          C17   1.388       .  A
C16        C1360   1.488       .  S
C17          C18   1.358       .  A
C17          H20   1.084       .  S
C18          C19   1.383       .  A
C18          H21   1.083       .  S
C19        C1349   1.491       .  S
N22          C26   1.367       .  A
N22          C23   1.372       .  A
N22         C607   1.475       .  S
C23          C24   1.386       .  A
C23        C1332   1.502       .  S
C24          C25   1.359       .  A
C24          H27   1.084       .  S
C25          C26   1.382       .  A
C25          H28   1.082       .  S
C26        C1321   1.490       .  S
N29          C33   1.374       .  A
N29          C30   1.366       .  A
N29         C641   1.473       .  S
C30          C31   1.384       .  A
C30        C1304   1.478       .  S
C31          C32   1.357       .  A
C31          H34   1.084       .  S
C32          C33   1.389       .  A
C32          H35   1.082       .  S
C33        C1290   1.509       .  S
N36          C40   1.366       .  A
N36          C37   1.364       .  A
N36         C644   1.474       .  S
C37          C38   1.389       .  A
C37        C1279   1.504       .  S
C38          C39   1.368       .  A
C38          H41   1.083       .  S
C39          C40   1.387       .  A
C39          H42   1.080       .  S
C40        C1262   1.511       .  S
N43          C47   1.359       .  A
N43          C44   1.360       .  A
N43         C609   1.464       .  S
C44          C45   1.385       .  A
C44        C1248   1.497       .  S
C45          C46   1.370       .  A
C45          H48   1.083       .  S
C46          C47   1.391       .  A
C46          H49   1.079       .  S
C47        C1234   1.501       .  S
N50          C54   1.369       .  A
N50          C51   1.365       .  A
N50         C643   1.475       .  S
C51          C52   1.383       .  A
C51        C1220   1.498       .  S
C52          C53   1.363       .  A
C52          H55   1.079       .  S
C53          C54   1.392       .  A
C53          H56   1.081       .  S
C54        C1209   1.513       .  S
N57          C61   1.371       .  A
N57          C58   1.368       .  A
N57         C610   1.470       .  S
C58          C59   1.386       .  A
C58        C1178   1.489       .  S
C59          C60   1.356       .  A
C59          H62   1.082       .  S
C60          C61   1.383       .  A
C60          H63   1.084       .  S
C61        C1195   1.492       .  S
N64          C68   1.366       .  A
N64          C65   1.368       .  A
N64         C712   1.470       .  S
C65          C66   1.383       .  A
C65        C1167   1.498       .  S
C66          C67   1.360       .  A
C66          H69   1.083       .  S
C67          C68   1.387       .  A
C67          H70   1.081       .  S
C68        C1150   1.499       .  S
O71         Mg73   2.166       .  S
O71         Mg79   2.143       .  S
O71         C106   1.233       .  S
C72         H111   1.081       .  S
C72          O85   1.235       .  S
C72         O109   1.272       .  A
Mg73        O102   2.165       .  S
Mg73        O117   2.308       .  S
Mg73        O113   2.260       .  S
Mg73         O84   2.314       .  S
O74        Mg116   2.145       .  S
O74         Mg99   2.162       .  S
O74          C95   1.237       .  S
O75         C106   1.271       .  A
O75         Mg99   2.319       .  S
C76        C1094   1.486       .  S
C76          O78   1.270       .  A
C76          O90   1.274       .  A
O77         C105   1.273       .  A
O77         Mg79   2.317       .  S
O78        Mg110   2.296       .  S
Mg79         O85   2.188       .  S
Mg79         O93   2.277       .  S
Mg79         O81   2.294       .  S
C80        C1122   1.496       .  S
C80         O118   1.270       .  A
C80          O86   1.267       .  A
O81          C88   1.270       .  A
H82          C95   1.081       .  S
C83         H108   1.081       .  S
C83          O97   1.234       .  S
C83          O98   1.272       .  A
O84         C107   1.271       .  A
O85         Mg99   2.159       .  S
O86        Mg116   2.269       .  S
C87        C1108   1.505       .  S
C87         O100   1.271       .  A
C87          O92   1.276       .  A
C88        C1164   1.482       .  S
C88         O115   1.270       .  A
Mg89         O96   2.185       .  S
Mg89         O97   2.147       .  S
Mg89         O90   2.289       .  S
Mg89         O91   2.337       .  S
Mg89        O118   2.328       .  S
O91          C95   1.276       .  A
O92         Mg99   2.318       .  S
O93         C112   1.271       .  A
O94         C114   1.275       .  A
O94        Mg110   2.306       .  S
O96        Mg110   2.172       .  S
O96         C107   1.234       .  S
O97        Mg116   2.186       .  S
O98        Mg110   2.325       .  S
Mg99        O115   2.274       .  S
O100       Mg116   2.290       .  S
H101        C106   1.081       .  S
O102       Mg110   2.176       .  S
O102        C105   1.236       .  S
H103        C105   1.081       .  S
H104        C107   1.081       .  S
O109       Mg116   2.318       .  S
C112       C1083   1.493       .  S
C112        O117   1.272       .  A
O113        C114   1.269       .  A
C114       C1136   1.488       .  S
N119        C123   1.365       .  A
N119        C120   1.363       .  A
N119        C745   1.476       .  S
C120        C121   1.389       .  A
C120       C1139   1.513       .  S
C121        C122   1.370       .  A
C121        H124   1.081       .  S
C122        C123   1.389       .  A
C122        H125   1.083       .  S
C123       C1066   1.508       .  S
O126       Mg128   2.211       .  S
O126       Mg134   2.203       .  S
O126        C161   1.235       .  S
C127        H166   1.081       .  S
C127        O140   1.238       .  S
C127        O164   1.277       .  A
Mg128       O157   2.157       .  S
Mg128       O172   2.219       .  S
Mg128       O168   2.295       .  S
Mg128       O139   2.311       .  S
O129       Mg171   2.127       .  S
O129       Mg154   2.145       .  S
O129        C150   1.236       .  S
O130        C161   1.269       .  A
O130       Mg154   2.305       .  S
C131       C1041   1.491       .  S
C131        O133   1.275       .  A
C131        O145   1.276       .  A
O132        C160   1.272       .  A
O132       Mg134   2.323       .  S
O133       Mg165   2.284       .  S
Mg134       O140   2.189       .  S
Mg134       O148   2.313       .  S
Mg134       O136   2.332       .  S
C135       C1024   1.478       .  S
C135        O173   1.270       .  A
C135        O141   1.261       .  A
O136        C143   1.275       .  A
H137        C150   1.081       .  S
C138        H163   1.081       .  S
C138        O152   1.231       .  S
C138        O153   1.267       .  A
O139        C162   1.272       .  A
O140       Mg154   2.156       .  S
O141       Mg171   2.239       .  S
C142       C1055   1.498       .  S
C142        O155   1.266       .  A
C142        O147   1.270       .  A
C143       C1416   1.481       .  S
C143        O170   1.267       .  A
Mg144       O151   2.179       .  S
Mg144       O152   2.170       .  S
Mg144       O145   2.309       .  S
Mg144       O146   2.327       .  S
Mg144       O173   2.316       .  S
O146        C150   1.274       .  A
O147       Mg154   2.299       .  S
O148        C167   1.268       .  A
O149        C169   1.278       .  A
O149       Mg165   2.317       .  S
O151       Mg165   2.183       .  S
O151        C162   1.236       .  S
O152       Mg171   2.170       .  S
O153       Mg165   2.303       .  S
Mg154       O170   2.226       .  S
O155       Mg171   2.270       .  S
H156        C161   1.079       .  S
O157       Mg165   2.157       .  S
O157        C160   1.234       .  S
H158        C160   1.081       .  S
H159        C162   1.081       .  S
O164       Mg171   2.338       .  S
C167       C1069   1.483       .  S
C167        O172   1.262       .  A
O168        C169   1.272       .  A
C169       C1335   1.494       .  S
O174       Mg176   2.169       .  S
O174       Mg182   2.134       .  S
O174        C209   1.237       .  S
C175        H214   1.081       .  S
C175        O188   1.232       .  S
C175        O212   1.270       .  A
Mg176       O205   2.169       .  S
Mg176       O220   2.288       .  S
Mg176       O216   2.267       .  S
Mg176       O187   2.299       .  S
O177       Mg219   2.170       .  S
O177       Mg202   2.173       .  S
O177        C198   1.236       .  S
O178        C209   1.276       .  A
O178       Mg202   2.341       .  S
C179       C1153   1.495       .  S
C179        O181   1.273       .  A
C179        O193   1.270       .  A
O180        C208   1.277       .  A
O180       Mg182   2.331       .  S
O181       Mg213   2.281       .  S
Mg182       O188   2.168       .  S
Mg182       O196   2.273       .  S
Mg182       O184   2.244       .  S
C183       C1391   1.482       .  S
C183        O221   1.267       .  A
C183        O189   1.273       .  A
O184        C191   1.262       .  A
H185        C198   1.081       .  S
C186        H211   1.081       .  S
C186        O200   1.233       .  S
C186        O201   1.270       .  A
O187        C210   1.266       .  A
O188       Mg202   2.157       .  S
O189       Mg219   2.294       .  S
C190       C1013   1.475       .  S
C190        O203   1.270       .  A
C190        O195   1.274       .  A
C191        C982   1.501       .  S
C191        O218   1.269       .  A
Mg192       O199   2.161       .  S
Mg192       O200   2.161       .  S
Mg192       O193   2.289       .  S
Mg192       O194   2.308       .  S
Mg192       O221   2.233       .  S
O194        C198   1.271       .  A
O195       Mg202   2.297       .  S
O196        C215   1.263       .  A
O197        C217   1.276       .  A
O197       Mg213   2.323       .  S
O199       Mg213   2.160       .  S
O199        C210   1.231       .  S
O200       Mg219   2.167       .  S
O201       Mg213   2.314       .  S
Mg202       O218   2.343       .  S
O203       Mg219   2.272       .  S
H204        C209   1.081       .  S
O205       Mg213   2.174       .  S
O205        C208   1.238       .  S
H206        C208   1.081       .  S
H207        C210   1.081       .  S
O212       Mg219   2.317       .  S
C215        C999   1.476       .  S
C215        O220   1.270       .  A
O216        C217   1.271       .  A
C217       C1293   1.502       .  S
N222        C226   1.368       .  A
N222        C223   1.364       .  A
N222        C744   1.477       .  S
C223        C224   1.390       .  A
C223       C1010   1.498   1_565  S
C224        C225   1.365       .  A
C224        H227   1.082   1_565  S
C225        C226   1.388       .  A
C225        H228   1.082       .  S
C226        C968   1.507       .  S
O229       Mg231   2.172       .  S
O229       Mg237   2.149       .  S
O229        C264   1.234       .  S
C230        H269   1.081       .  S
C230        O243   1.234       .  S
C230        O267   1.272       .  A
Mg231       O260   2.161       .  S
Mg231       O275   2.268       .  S
Mg231       O271   2.250       .  S
Mg231       O242   2.300       .  S
O232       Mg274   2.148       .  S
O232       Mg257   2.165       .  S
O232        C253   1.236       .  S
O233        C264   1.272       .  A
O233       Mg257   2.324       .  S
C234        C971   1.488       .  S
C234        O236   1.273       .  A
C234        O248   1.271       .  A
O235        C263   1.276       .  A
O235       Mg237   2.332       .  S
O236       Mg268   2.286       .  S
Mg237       O243   2.176       .  S
Mg237       O251   2.312       .  S
Mg237       O239   2.281       .  S
C238       C1346   1.492       .  S
C238        O276   1.267       .  A
C238        O244   1.269       .  A
O239        C246   1.270       .  A
H240        C253   1.081       .  S
C241        H266   1.081       .  S
C241        O255   1.232       .  S
C241        O256   1.269       .  A
O242        C265   1.268       .  A
O243       Mg257   2.166       .  S
O244       Mg274   2.282       .  S
C245        C954   1.482       .  S
C245        O258   1.268       .  A
C245        O250   1.271       .  A
C246       C1307   1.469       .  S
C246        O273   1.265       .  A
Mg247       O254   2.156       .  S
Mg247       O255   2.153       .  S
Mg247       O248   2.288       .  S
Mg247       O249   2.320       .  S
Mg247       O276   2.245       .  S
O249        C253   1.273       .  A
O250       Mg257   2.305       .  S
O251        C270   1.269       .  A
O252        C272   1.275       .  A
O252       Mg268   2.322       .  S
O254       Mg268   2.166       .  S
O254        C265   1.233       .  S
O255       Mg274   2.170       .  S
O256       Mg268   2.314       .  S
Mg257       O273   2.263       .  S
O258       Mg274   2.260       .  S
H259        C264   1.081       .  S
O260       Mg268   2.175       .  S
O260        C263   1.237       .  S
H261        C263   1.081       .  S
H262        C265   1.081       .  S
O267       Mg274   2.323       .  S
C270        C940   1.484       .  S
C270        O275   1.267       .  A
O271        C272   1.271       .  A
C272       C1318   1.492       .  S
N277        C281   1.363       .  A
N277        C278   1.367       .  A
N277        C711   1.475       .  S
C278        C279   1.389       .  A
C278       C1052   1.510       .  S
C279        C280   1.366       .  A
C279        H282   1.083       .  S
C280        C281   1.387       .  A
C280        H283   1.082       .  S
C281        C957   1.498       .  S
N284        C288   1.372   1_554  A
N284        C285   1.374       .  A
N284        C678   1.487       .  S
C285        C286   1.389       .  A
C285       C1125   1.511       .  S
C286        C287   1.361   1_554  A
C286        H289   1.082       .  S
C287        C288   1.394       .  A
C287        H290   1.082       .  S
C288        C926   1.513       .  S
O291       Mg293   2.179       .  S
O291       Mg299   2.163       .  S
O291        C326   1.234       .  S
C292        H331   1.081       .  S
C292        O305   1.236       .  S
C292        O329   1.275       .  A
Mg293       O322   2.135       .  S
Mg293       O337   2.252       .  S
Mg293       O333   2.274       .  S
Mg293       O304   2.316       .  S
O294       Mg336   2.156       .  S
O294       Mg319   2.176       .  S
O294        C315   1.234       .  S
O295        C326   1.273       .  A
O295       Mg319   2.333       .  S
C296        C912   1.479       .  S
C296        O298   1.267       .  A
C296        O310   1.274       .  A
O297        C325   1.273       .  A
O297       Mg299   2.325       .  S
O298       Mg330   2.225       .  S
Mg299       O305   2.225       .  S
Mg299       O313   2.341       .  S
Mg299       O301   2.268       .  S
C300       C1251   1.479       .  S
C300        O338   1.269       .  A
C300        O306   1.271       .  A
O301        C308   1.268       .  A
H302        C315   1.081       .  S
C303        H328   1.081       .  S
C303        O317   1.233       .  S
C303        O318   1.269       .  A
O304        C327   1.272       .  A
O305       Mg319   2.179       .  S
O306       Mg336   2.295       .  S
C307        C929   1.500       .  S
C307        O320   1.268       .  A
C307        O312   1.278       .  A
C308       C1206   1.489       .  S
C308        O335   1.271       .  A
Mg309       O316   2.164       .  S
Mg309       O317   2.160       .  S
Mg309       O310   2.309       .  S
Mg309       O311   2.327       .  S
Mg309       O338   2.286       .  S
O311        C315   1.273       .  A
O312       Mg319   2.336       .  S
O313        C332   1.271       .  A
O314        C334   1.268       .  A
O314       Mg330   2.299       .  S
O316       Mg330   2.168       .  S
O316        C327   1.235       .  S
O317       Mg336   2.170       .  S
O318       Mg330   2.300       .  S
Mg319       O335   2.299       .  S
O320       Mg336   2.278       .  S
H321        C326   1.081       .  S
O322       Mg330   2.154       .  S
O322        C325   1.235       .  S
H323        C325   1.081       .  S
H324        C327   1.081       .  S
O329       Mg336   2.334       .  S
C332        C898   1.497       .  S
C332        O337   1.266       .  A
O333        C334   1.269       .  A
C334        C884   1.482       .  S
N339        C343   1.363       .  A
N339        C340   1.359       .  A
N339        C746   1.473       .  S
C340        C341   1.384       .  A
C340        C915   1.490       .  S
C341        C342   1.367       .  A
C341        H344   1.083       .  S
C342        C343   1.394       .  A
C342        H345   1.082       .  S
C343        C870   1.513       .  S
O346       Mg348   2.168       .  S
O346       Mg354   2.154       .  S
O346        C381   1.235       .  S
C347        H386   1.081       .  S
C347        O360   1.234       .  S
C347        O384   1.269       .  A
Mg348       O377   2.174       .  S
Mg348       O392   2.268       .  S
Mg348       O388   2.267       .  S
Mg348       O359   2.301       .  S
O349       Mg391   2.154       .  S
O349       Mg374   2.141       .  S
O349        C370   1.237       .  S
O350        C381   1.273       .  A
O350       Mg374   2.329       .  S
C351        C859   1.494       .  S
C351        O353   1.270       .  A
C351        O365   1.270       .  A
O352        C380   1.277       .  A
O352       Mg354   2.335       .  S
O353       Mg385   2.310       .  S
Mg354       O360   2.173       .  S
Mg354       O368   2.275       .  S
Mg354       O356   2.244       .  S
C355       C1223   1.491       .  S
C355        O393   1.268       .  A
C355        O361   1.269       .  A
O356        C363   1.264       .  A
H357        C370   1.081       .  S
C358        H383   1.081       .  S
C358        O372   1.233       .  S
C358        O373   1.270       .  A
O359        C382   1.266       .  A
O360       Mg374   2.182       .  S
O361       Mg391   2.276       .  S
C362        C842   1.477       .  S
C362        O375   1.272       .  A
C362        O367   1.270       .  A
C363       C1181   1.487       .  S
C363        O390   1.263       .  A
Mg364       O371   2.183       .  S
Mg364       O372   2.140       .  S
Mg364       O365   2.260       .  S
Mg364       O366   2.317       .  S
Mg364       O393   2.288       .  S
O366        C370   1.273       .  A
O367       Mg374   2.291       .  S
O368        C387   1.264       .  A
O369        C389   1.273       .  A
O369       Mg385   2.293       .  S
O371       Mg385   2.187       .  S
O371        C382   1.231       .  S
O372       Mg391   2.165       .  S
O373       Mg385   2.317       .  S
Mg374       O390   2.279       .  S
O375       Mg391   2.273       .  S
H376        C381   1.081       .  S
O377       Mg385   2.181       .  S
O377        C380   1.238       .  S
H378        C380   1.081       .  S
H379        C382   1.080       .  S
O384       Mg391   2.306       .  S
C387        C873   1.486       .  S
C387        O392   1.270       .  A
O388        C389   1.271       .  A
C389       C1405   1.486       .  S
N394        C398   1.361       .  A
N394        C395   1.365       .  A
N394        C710   1.478       .  S
C395        C396   1.389       .  A
C395        C856   1.511       .  S
C396        C397   1.364       .  A
C396        H399   1.083       .  S
C397        C398   1.387       .  A
C397        H400   1.081       .  S
C398        C828   1.499       .  S
N401        C405   1.367       .  A
N401        C402   1.367       .  A
N401        C709   1.465       .  S
C402        C403   1.390       .  A
C402        C901   1.503       .  S
C403        C404   1.364       .  A
C403        H406   1.081       .  S
C404        C405   1.380       .  A
C404        H407   1.084       .  S
C405        C817   1.491       .  S
O408       Mg410   2.170       .  S
O408       Mg416   2.150       .  S
O408        C443   1.237       .  S
C409        H448   1.081       .  S
C409        O422   1.233       .  S
C409        O446   1.269       .  A
Mg410       O439   2.162       .  S
Mg410       O454   2.299       .  S
Mg410       O450   2.288       .  S
Mg410       O421   2.321       .  S
O411       Mg453   2.160       .  S
O411       Mg436   2.149       .  S
O411        C432   1.233       .  S
O412        C443   1.277       .  A
O412       Mg436   2.343       .  S
C413        C786   1.501       .  S
C413        O415   1.270       .  A
C413        O427   1.272       .  A
O414        C442   1.272       .  A
O414       Mg416   2.320       .  S
O415       Mg447   2.273       .  S
Mg416       O422   2.169       .  S
Mg416       O430   2.235       .  S
Mg416       O418   2.225       .  S
C417       C1237   1.492       .  S
C417        O455   1.269       .  A
C417        O423   1.272       .  A
O418        C425   1.260       .  A
H419        C432   1.081       .  S
C420        H445   1.081       .  S
C420        O434   1.235       .  S
C420        O435   1.272       .  A
O421        C444   1.271       .  A
O422       Mg436   2.167       .  S
O423       Mg453   2.291       .  S
C424        C803   1.496       .  S
C424        O437   1.273       .  A
C424        O429   1.274       .  A
C425       C1377   1.476       .  S
C425        O452   1.264       .  A
Mg426       O433   2.163       .  S
Mg426       O434   2.162       .  S
Mg426       O427   2.300       .  S
Mg426       O428   2.311       .  S
Mg426       O455   2.243       .  S
O428        C432   1.270       .  A
O429       Mg436   2.298       .  S
O430        C449   1.263       .  A
O431        C451   1.270       .  A
O431       Mg447   2.278       .  S
O433       Mg447   2.157       .  S
O433        C444   1.233       .  S
O434       Mg453   2.181       .  S
O435       Mg447   2.314       .  S
Mg436       O452   2.308       .  S
O437       Mg453   2.280       .  S
H438        C443   1.081       .  S
O439       Mg447   2.166       .  S
O439        C442   1.235       .  S
H440        C442   1.081       .  S
H441        C444   1.081       .  S
O446       Mg453   2.312       .  S
C449        C814   1.475       .  S
C449        O454   1.271       .  A
O450        C451   1.268       .  A
C451       C1276   1.476       .  S
N456        C460   1.371       .  A
N456        C457   1.368       .  A
N456        C743   1.478       .  S
C457        C458   1.387       .  A
C457        C772   1.490       .  S
C458        C459   1.362       .  A
C458        H461   1.084       .  S
C459        C460   1.387       .  A
C459        H462   1.082       .  S
C460        C800   1.503       .  S
O463       Mg465   2.151       .  S
O463       Mg471   2.139       .  S
O463        C498   1.235       .  S
C464        H503   1.081       .  S
C464        O477   1.234       .  S
C464        O501   1.270       .  A
Mg465       O494   2.152       .  S
Mg465       O509   2.293       .  S
Mg465       O505   2.253       .  S
Mg465       O476   2.325       .  S
O466       Mg508   2.169       .  S
O466       Mg491   2.173       .  S
O466        C487   1.232       .  S
O467        C498   1.272       .  A
O467       Mg491   2.316       .  S
C468       C1192   1.480       .  S
C468        O470   1.268       .  A
C468        O482   1.274       .  A
O469        C497   1.272       .  A
O469       Mg471   2.319       .  S
O470       Mg502   2.255       .  S
Mg471       O477   2.147       .  S
Mg471       O485   2.264       .  S
Mg471       O473   2.276       .  S
C472        C775   1.477       .  S
C472        O510   1.272       .  A
C472        O478   1.270       .  A
O473        C480   1.269       .  A
H474        C487   1.081       .  S
C475        H500   1.081       .  S
C475        O489   1.235       .  S
C475        O490   1.272       .  A
O476        C499   1.273       .  A
O477       Mg491   2.143       .  S
O478       Mg508   2.289       .  S
C479       C1363   1.477       .  S
C479        O492   1.269       .  A
C479        O484   1.268       .  A
C480        C831   1.480       .  S
C480        O507   1.271       .  A
Mg481       O488   2.162       .  S
Mg481       O489   2.176       .  S
Mg481       O482   2.300       .  S
Mg481       O483   2.302       .  S
Mg481       O510   2.269       .  S
O483        C487   1.268       .  A
O484       Mg491   2.271       .  S
O485        C504   1.268       .  A
O486        C506   1.270       .  A
O486       Mg502   2.279       .  S
O488       Mg502   2.156       .  S
O488        C499   1.236       .  S
O489       Mg508   2.179       .  S
O490       Mg502   2.316       .  S
Mg491       O507   2.279       .  S
O492       Mg508   2.266       .  S
H493        C498   1.081       .  S
O494       Mg502   2.159       .  S
O494        C497   1.235       .  S
H495        C497   1.081       .  S
H496        C499   1.081       .  S
O501       Mg508   2.310       .  S
C504       C1265   1.484       .  S
C504        O509   1.268       .  A
O505        C506   1.264       .  A
C506        C761   1.487       .  S
N511        C515   1.360   1_554  A
N511        C512   1.364       .  A
N511        C677   1.470       .  S
C512        C513   1.391       .  A
C512       C1038   1.513       .  S
C513        C514   1.368   1_554  A
C513        H516   1.080       .  S
C514        C515   1.384       .  A
C514        H517   1.083       .  S
C515        C845   1.490       .  S
N518        C522   1.380   1_554  A
N518        C519   1.368       .  A
N518        C675   1.477       .  S
C519        C520   1.379       .  A
C519        C996   1.484       .  S
C520        C521   1.357       .  A
C520        H523   1.084       .  S
C521        C522   1.391   1_554  A
C521        H524   1.081   1_554  S
C522        C789   1.515       .  S
N525        C529   1.365   1_554  A
N525        C526   1.369       .  A
N525        C676   1.473   1_554  S
C526        C527   1.383       .  A
C526        C943   1.499       .  S
C527        C528   1.362   1_554  A
C527        H530   1.084       .  S
C528        C529   1.386       .  A
C528        H531   1.082       .  S
C529        C758   1.492       .  S
N532        C536   1.372       .  A
N532        C533   1.373       .  A
N532        C608   1.480       .  S
C533        C534   1.389       .  A
C533       C1097   1.510       .  S
C534        C535   1.356       .  A
C534        H537   1.083       .  S
C535        C536   1.384       .  A
C535        H538   1.079       .  S
C536        C985   1.505       .  S
N539        C543   1.366       .  A
N539        C540   1.374       .  A
N539        C642   1.473       .  S
C540        C541   1.389       .  A
C540       C1111   1.515       .  S
C541        C542   1.364       .  A
C541        H544   1.080       .  S
C542        C543   1.387       .  A
C542        H545   1.084       .  S
C543       C1027   1.492       .  S
N546        C550   1.371       .  A
N546        C547   1.369       .  A
N546        C574   1.470       .  S
C547        C548   1.389       .  A
C547        C887   1.495       .  S
C548        C549   1.357       .  A
C548        H551   1.083       .  S
C549        C550   1.381       .  A
C549        H552   1.082       .  S
C550       C1080   1.494       .  S
N553        C558   1.364       .  A
N553        C557   1.352       .  A
N553        H585   1.039       .  S
N554        C561   1.362       .  A
N554        C562   1.366       .  A
N555        C560   1.360       .  A
N555        C559   1.353       .  A
N555        H586   1.042   1_655  S
N556        C563   1.349       .  A
N556        C564   1.347       .  A
C557        C565   1.386       .  A
C557        C573   1.422       .  A
C558        C574   1.423   1_565  A
C558        C566   1.381       .  A
C559        C567   1.389       .  A
C559        C576   1.430       .  A
C560        C575   1.416   1_565  A
C560        C568   1.379       .  A
C561        C573   1.442       .  A
C561        C569   1.391       .  A
C562        C576   1.425   1_455  A
C562        C570   1.378       .  A
C563        C571   1.382       .  A
C563        C574   1.411       .  A
C564        C572   1.385       .  A
C564        C575   1.412   1_455  A
C565        C566   1.387       .  A
C565        H577   1.075       .  S
C566        H578   1.080       .  S
C567        C568   1.375       .  A
C567        H579   1.073       .  S
C568        H580   1.077       .  S
C569        C570   1.376       .  A
C569        H581   1.076       .  S
C570        H582   1.080       .  S
C571        C572   1.373       .  A
C571        H583   1.079       .  S
C572        H584   1.081       .  S
N587        C592   1.365       .  A
N587        C591   1.359       .  A
N587        H619   1.040       .  S
N588        C595   1.368   1_556  A
N588        C596   1.370       .  A
N589        C594   1.359       .  A
N589        C593   1.354       .  A
N589        H620   1.040       .  S
N590        C597   1.354   1_556  A
N590        C598   1.355       .  A
C591        C599   1.388       .  A
C591        C607   1.432       .  A
C592        C608   1.429   1_565  A
C592        C600   1.382       .  A
C593        C601   1.395       .  A
C593        C610   1.433       .  A
C594        C609   1.410   1_565  A
C594        C602   1.375       .  A
C595        C607   1.455       .  A
C595        C603   1.392   1_554  A
C596        C610   1.433       .  A
C596        C604   1.375       .  A
C597        C605   1.386       .  A
C597        C608   1.425       .  A
C598        C606   1.384       .  A
C598        C609   1.418       .  A
C599        C600   1.387       .  A
C599        H611   1.079       .  S
C600        H612   1.080       .  S
C601        C602   1.372       .  A
C601        H613   1.072       .  S
C602        H614   1.082   1_565  S
C603        C604   1.372       .  A
C603        H615   1.070       .  S
C604        H616   1.078       .  S
C605        C606   1.372   1_554  A
C605        H617   1.080       .  S
C606        H618   1.081       .  S
N621        C626   1.358       .  A
N621        C625   1.358       .  A
N621        H653   1.039       .  S
N622        C629   1.359   1_455  A
N622        C630   1.360   1_454  A
N623        C628   1.355       .  A
N623        C627   1.355       .  A
N623        H654   1.041       .  S
N624        C631   1.360       .  A
N624        C632   1.361   1_554  A
C625        C633   1.387       .  A
C625        C641   1.429   1_455  A
C626        C642   1.429       .  A
C626        C634   1.387       .  A
C627        C635   1.388       .  A
C627        C644   1.425   1_455  A
C628        C643   1.421       .  A
C628        C636   1.385       .  A
C629        C641   1.430       .  A
C629        C637   1.385       .  A
C630        C644   1.426       .  A
C630        C638   1.382       .  A
C631        C639   1.384       .  A
C631        C642   1.429       .  A
C632        C640   1.383       .  A
C632        C643   1.429       .  A
C633        C634   1.393       .  A
C633        H645   1.080       .  S
C634        H646   1.082       .  S
C635        C636   1.390       .  A
C635        H647   1.080       .  S
C636        H648   1.082       .  S
C637        C638   1.368   1_554  A
C637        H649   1.076       .  S
C638        H650   1.080       .  S
C639        C640   1.368   1_554  A
C639        H651   1.075       .  S
C640        H652   1.080       .  S
N655        C660   1.371   1_556  A
N655        C659   1.369   1_556  A
N655        H687   1.042       .  S
N656        C663   1.356       .  A
N656        C664   1.364       .  A
N657        C662   1.353       .  A
N657        C661   1.350       .  A
N657        H688   1.045   1_554  S
N658        C665   1.354   1_554  A
N658        C666   1.360       .  A
C659        C667   1.393       .  A
C659        C675   1.455       .  A
C660        C676   1.431   1_554  A
C660        C668   1.376       .  A
C661        C669   1.387       .  A
C661        C678   1.422       .  A
C662        C677   1.416       .  A
C662        C670   1.385       .  A
C663        C675   1.437       .  A
C663        C671   1.391   1_554  A
C664        C678   1.426       .  A
C664        C672   1.380       .  A
C665        C673   1.394       .  A
C665        C676   1.436       .  A
C666        C674   1.375   1_554  A
C666        C677   1.414       .  A
C667        C668   1.373       .  A
C667        H679   1.069       .  S
C668        H680   1.081       .  S
C669        C670   1.378       .  A
C669        H681   1.082       .  S
C670        H682   1.081       .  S
C671        C672   1.389   1_556  A
C671        H683   1.079       .  S
C672        H684   1.082       .  S
C673        C674   1.375       .  A
C673        H685   1.072       .  S
C674        H686   1.082       .  S
N689        C694   1.361       .  A
N689        C693   1.360       .  A
N689        H721   1.043       .  S
N690        C697   1.360       .  A
N690        C698   1.360       .  A
N691        C696   1.363       .  A
N691        C695   1.363       .  A
N691        H722   1.042       .  S
N692        C699   1.360       .  A
N692        C700   1.361       .  A
C693        C701   1.377       .  A
C693        C709   1.417       .  A
C694        C710   1.444       .  A
C694        C702   1.396       .  A
C695        C703   1.392       .  A
C695        C712   1.442       .  A
C696        C711   1.425       .  A
C696        C704   1.379       .  A
C697        C709   1.432       .  A
C697        C705   1.388       .  A
C698        C712   1.418       .  A
C698        C706   1.378       .  A
C699        C707   1.379       .  A
C699        C710   1.423       .  A
C700        C708   1.387       .  A
C700        C711   1.435       .  A
C701        C702   1.376       .  A
C701        H713   1.080       .  S
C702        H714   1.077       .  S
C703        C704   1.377       .  A
C703        H715   1.075       .  S
C704        H716   1.078       .  S
C705        C706   1.371       .  A
C705        H717   1.074       .  S
C706        H718   1.077       .  S
C707        C708   1.372       .  A
C707        H719   1.076       .  S
C708        H720   1.076       .  S
N723        C728   1.363       .  A
N723        C727   1.363       .  A
N723        H755   1.041       .  S
N724        C731   1.356       .  A
N724        C732   1.362       .  A
N725        C730   1.353       .  A
N725        C729   1.352       .  A
N725        H756   1.045       .  S
N726        C733   1.353       .  A
N726        C734   1.359       .  A
C727        C735   1.387       .  A
C727        C743   1.436       .  A
C728        C744   1.433       .  A
C728        C736   1.385       .  A
C729        C737   1.387       .  A
C729        C746   1.422       .  A
C730        C745   1.424       .  A
C730        C738   1.387       .  A
C731        C743   1.436       .  A
C731        C739   1.389       .  A
C732        C746   1.415       .  A
C732        C740   1.376       .  A
C733        C741   1.390       .  A
C733        C744   1.432       .  A
C734        C742   1.381       .  A
C734        C745   1.419       .  A
C735        C736   1.389       .  A
C735        H747   1.076       .  S
C736        H748   1.082       .  S
C737        C738   1.378       .  A
C737        H749   1.081   1_565  S
C738        H750   1.080       .  S
C739        C740   1.372       .  A
C739        H751   1.073       .  S
C740        H752   1.078       .  S
C741        C742   1.377       .  A
C741        H753   1.081       .  S
C742        H754   1.079       .  S
C757        C758   1.405       .  A
C757        C762   1.407       .  A
C757        H764   1.083       .  S
C758        C759   1.418       .  A
C759        C760   1.401       .  A
C759        N766   1.438       .  S
C760        C761   1.405       .  A
C760        H765   1.084       .  S
C761        C762   1.414       .  A
C762        N763   1.433       .  S
N763        H767   1.045       .  S
N763        H768   1.046       .  S
N766        H769   1.043       .  S
N766        H770   1.046       .  S
C771        C772   1.414       .  A
C771        C776   1.404       .  A
C771        H778   1.081       .  S
C772        C773   1.407       .  A
C773        C774   1.410       .  A
C773        N780   1.438       .  S
C774        C775   1.408       .  A
C774        H779   1.084       .  S
C775        C776   1.402       .  A
C776        N777   1.437       .  S
N777        H781   1.046       .  S
N777        H782   1.045       .  S
N780        H783   1.046       .  S
N780        H784   1.046       .  S
C785        C786   1.410       .  A
C785        C790   1.414       .  A
C785        H792   1.083       .  S
C786        C787   1.413       .  A
C787        C788   1.405       .  A
C787        N794   1.433       .  S
C788        C789   1.413       .  A
C788        H793   1.083       .  S
C789        C790   1.414       .  A
C790        N791   1.431       .  S
N791        H795   1.046       .  S
N791        H796   1.045       .  S
N794        H797   1.046       .  S
N794        H798   1.046       .  S
C799        C800   1.409   1_545  A
C799        C804   1.409       .  A
C799        H806   1.084   1_545  S
C800        C801   1.413       .  A
C801        C802   1.405   1_565  A
C801        N808   1.428       .  S
C802        C803   1.405       .  A
C802        H807   1.084       .  S
C803        C804   1.417       .  A
C804        N805   1.437       .  S
N805        H809   1.046       .  S
N805        H810   1.046       .  S
N808        H811   1.045       .  S
N808        H812   1.046       .  S
C813        C814   1.391       .  A
C813        C818   1.399   1_655  A
C813        H820   1.084       .  S
C814        C815   1.419       .  A
C815        C816   1.405       .  A
C815        N822   1.433       .  S
C816        C817   1.403   1_655  A
C816        H821   1.084       .  S
C817        C818   1.418       .  A
C818        N819   1.424       .  S
N819        H823   1.046       .  S
N819        H824   1.045       .  S
N822        H825   1.046       .  S
N822        H826   1.044       .  S
C827        C828   1.413       .  A
C827        C832   1.399   1_455  A
C827        H834   1.080       .  S
C828        C829   1.412   1_455  A
C829        C830   1.407       .  A
C829        N836   1.431       .  S
C830        C831   1.405       .  A
C830        H835   1.084       .  S
C831        C832   1.407       .  A
C832        N833   1.434       .  S
N833        H837   1.045   1_655  S
N833        H838   1.046       .  S
N836        H839   1.046   1_655  S
N836        H840   1.045       .  S
C841        C842   1.408       .  A
C841        C846   1.407       .  A
C841        H848   1.084       .  S
C842        C843   1.404       .  A
C843        C844   1.406       .  A
C843        N850   1.437       .  S
C844        C845   1.412       .  A
C844        H849   1.080       .  S
C845        C846   1.403       .  A
C846        N847   1.431       .  S
N847        H851   1.046       .  S
N847        H852   1.045       .  S
N850        H853   1.046       .  S
N850        H854   1.046       .  S
C855        C856   1.404       .  A
C855        C860   1.399       .  A
C855        H862   1.084       .  S
C856        C857   1.423       .  A
C857        C858   1.412       .  A
C857        N864   1.430       .  S
C858        C859   1.402       .  A
C858        H863   1.084       .  S
C859        C860   1.419       .  A
C860        N861   1.428       .  S
N861        H865   1.042       .  S
N861        H866   1.043       .  S
N864        H867   1.045       .  S
N864        H868   1.045       .  S
C869        C870   1.407       .  A
C869        C874   1.399       .  A
C869        H876   1.083       .  S
C870        C871   1.423       .  A
C871        C872   1.410       .  A
C871        N878   1.432       .  S
C872        C873   1.401       .  A
C872        H877   1.084       .  S
C873        C874   1.415       .  A
C874        N875   1.431       .  S
N875        H879   1.043       .  S
N875        H880   1.045       .  S
N878        H881   1.045       .  S
N878        H882   1.045       .  S
C883        C884   1.404       .  A
C883        C888   1.401       .  A
C883        H890   1.084       .  S
C884        C885   1.411       .  A
C885        C886   1.405       .  A
C885        N892   1.431       .  S
C886        C887   1.409       .  A
C886        H891   1.079       .  S
C887        C888   1.418       .  A
C888        N889   1.438       .  S
N889        H893   1.046       .  S
N889        H894   1.045       .  S
N892        H895   1.046       .  S
N892        H896   1.045       .  S
C897        C898   1.407       .  A
C897        C902   1.406       .  A
C897        H904   1.083       .  S
C898        C899   1.415       .  A
C899        C900   1.417       .  A
C899        N906   1.436       .  S
C900        C901   1.408       .  A
C900        H905   1.083       .  S
C901        C902   1.412       .  A
C902        N903   1.438       .  S
N903        H907   1.045       .  S
N903        H908   1.046       .  S
N906        H909   1.046       .  S
N906        H910   1.046       .  S
C911        C912   1.408       .  A
C911        C916   1.407       .  A
C911        H918   1.084       .  S
C912        C913   1.406   1_545  A
C913        C914   1.401       .  A
C913        N920   1.433       .  S
C914        C915   1.411       .  A
C914        H919   1.083       .  S
C915        C916   1.406   1_565  A
C916        N917   1.432       .  S
N917        H921   1.045       .  S
N917        H922   1.045       .  S
N920        H923   1.046       .  S
N920        H924   1.045       .  S
C925        C926   1.408       .  A
C925        C930   1.400       .  A
C925        H932   1.084       .  S
C926        C927   1.418       .  A
C927        C928   1.418       .  A
C927        N934   1.431       .  S
C928        C929   1.410       .  A
C928        H933   1.084       .  S
C929        C930   1.417       .  A
C930        N931   1.433       .  S
N931        H935   1.045       .  S
N931        H936   1.045       .  S
N934        H937   1.046       .  S
N934        H938   1.045       .  S
C939        C940   1.405       .  A
C939        C944   1.407       .  A
C939        H946   1.084       .  S
C940        C941   1.405       .  A
C941        C942   1.411       .  A
C941        N948   1.437       .  S
C942        C943   1.413       .  A
C942        H947   1.075       .  S
C943        C944   1.415       .  A
C944        N945   1.437       .  S
N945        H949   1.046       .  S
N945        H950   1.044       .  S
N948        H951   1.046       .  S
N948        H952   1.045       .  S
C953        C954   1.406       .  A
C953        C958   1.404       .  A
C953        H960   1.084       .  S
C954        C955   1.408       .  A
C955        C956   1.409   1_655  A
C955        N962   1.437   1_655  S
C956        C957   1.412       .  A
C956        H961   1.082       .  S
C957        C958   1.409   1_455  A
C958        N959   1.433       .  S
N959        H963   1.045       .  S
N959        H964   1.046       .  S
N962        H965   1.045   1_455  S
N962        H966   1.046       .  S
C967        C968   1.416       .  A
C967        C972   1.403       .  A
C967        H974   1.080       .  S
C968        C969   1.410       .  A
C969        C970   1.411       .  A
C969        N976   1.432       .  S
C970        C971   1.410       .  A
C970        H975   1.084       .  S
C971        C972   1.403       .  A
C972        N973   1.432       .  S
N973        H977   1.046       .  S
N973        H978   1.046       .  S
N976        H979   1.045       .  S
N976        H980   1.046       .  S
C981        C982   1.406       .  A
C981        C986   1.399       .  A
C981        H988   1.082       .  S
C982        C983   1.419       .  A
C983        C984   1.419       .  A
C983        N990   1.437       .  S
C984        C985   1.406       .  A
C984        H989   1.081       .  S
C985        C986   1.413       .  A
C986        N987   1.433       .  S
N987        H991   1.046       .  S
N987        H992   1.046       .  S
N990        H993   1.045       .  S
N990        H994   1.046       .  S
C995        C996   1.403       .  A
C995       C1000   1.402       .  A
C995       H1002   1.084       .  S
C996        C997   1.417       .  A
C997        C998   1.406       .  A
C997       N1004   1.429       .  S
C998        C999   1.396       .  A
C998       H1003   1.084       .  S
C999       C1000   1.414       .  A
C1000      N1001   1.433       .  S
N1001      H1005   1.045       .  S
N1001      H1006   1.046       .  S
N1004      H1007   1.045   1_554  S
N1004      H1008   1.046   1_554  S
C1009      C1010   1.413   1_565  A
C1009      C1014   1.410   1_565  A
C1009      H1016   1.081       .  S
C1010      C1011   1.416       .  A
C1011      C1012   1.401       .  A
C1011      N1018   1.438       .  S
C1012      C1013   1.403       .  A
C1012      H1017   1.084       .  S
C1013      C1014   1.404       .  A
C1014      N1015   1.437   1_545  S
N1015      H1019   1.045       .  S
N1015      H1020   1.046       .  S
N1018      H1021   1.045       .  S
N1018      H1022   1.046       .  S
C1023      C1024   1.405       .  A
C1023      C1028   1.405       .  A
C1023      H1030   1.084       .  S
C1024      C1025   1.407       .  A
C1025      C1026   1.402       .  A
C1025      N1032   1.432       .  S
C1026      C1027   1.411       .  A
C1026      H1031   1.080       .  S
C1027      C1028   1.415       .  A
C1028      N1029   1.436       .  S
N1029      H1033   1.046       .  S
N1029      H1034   1.045       .  S
N1032      H1035   1.046       .  S
N1032      H1036   1.045       .  S
C1037      C1038   1.414       .  A
C1037      C1042   1.404       .  A
C1037      H1044   1.079       .  S
C1038      C1039   1.421       .  A
C1039      C1040   1.411       .  A
C1039      N1046   1.437       .  S
C1040      C1041   1.405       .  A
C1040      H1045   1.083       .  S
C1041      C1042   1.408       .  A
C1042      N1043   1.434       .  S
N1043      H1047   1.045       .  S
N1043      H1048   1.046       .  S
N1046      H1049   1.045       .  S
N1046      H1050   1.046       .  S
C1051      C1052   1.417       .  A
C1051      C1056   1.400       .  A
C1051      H1058   1.082       .  S
C1052      C1053   1.408       .  A
C1053      C1054   1.415       .  A
C1053      N1060   1.437       .  S
C1054      C1055   1.413       .  A
C1054      H1059   1.083       .  S
C1055      C1056   1.413       .  A
C1056      N1057   1.433       .  S
N1057      H1061   1.046       .  S
N1057      H1062   1.044       .  S
N1060      H1063   1.046       .  S
N1060      H1064   1.045       .  S
C1065      C1066   1.411       .  A
C1065      C1070   1.401       .  A
C1065      H1072   1.076       .  S
C1066      C1067   1.417       .  A
C1067      C1068   1.408       .  A
C1067      N1074   1.438       .  S
C1068      C1069   1.405       .  A
C1068      H1073   1.078       .  S
C1069      C1070   1.405       .  A
C1070      N1071   1.432       .  S
N1071      H1075   1.045       .  S
N1071      H1076   1.046       .  S
N1074      H1077   1.045       .  S
N1074      H1078   1.045       .  S
C1079      C1080   1.406       .  A
C1079      C1084   1.412       .  A
C1079      H1086   1.080       .  S
C1080      C1081   1.414       .  A
C1081      C1082   1.403       .  A
C1081      N1088   1.433       .  S
C1082      C1083   1.405       .  A
C1082      H1087   1.084       .  S
C1083      C1084   1.413       .  A
C1084      N1085   1.431       .  S
N1085      H1089   1.045       .  S
N1085      H1090   1.046       .  S
N1088      H1091   1.046       .  S
N1088      H1092   1.045       .  S
C1093      C1094   1.400       .  A
C1093      C1098   1.412       .  A
C1093      H1100   1.084       .  S
C1094      C1095   1.409       .  A
C1095      C1096   1.405       .  A
C1095      N1102   1.433       .  S
C1096      C1097   1.410       .  A
C1096      H1101   1.084       .  S
C1097      C1098   1.418       .  A
C1098      N1099   1.426       .  S
N1099      H1103   1.045       .  S
N1099      H1104   1.046       .  S
N1102      H1105   1.046       .  S
N1102      H1106   1.045       .  S
C1107      C1108   1.410       .  A
C1107      C1112   1.410       .  A
C1107      H1114   1.084       .  S
C1108      C1109   1.419       .  A
C1109      C1110   1.406       .  A
C1109      N1116   1.433       .  S
C1110      C1111   1.415       .  A
C1110      H1115   1.081       .  S
C1111      C1112   1.413       .  A
C1112      N1113   1.430       .  S
N1113      H1117   1.045       .  S
N1113      H1118   1.046       .  S
N1116      H1119   1.044       .  S
N1116      H1120   1.045       .  S
C1121      C1122   1.412       .  A
C1121      C1126   1.421       .  A
C1121      H1128   1.083       .  S
C1122      C1123   1.409       .  A
C1123      C1124   1.402       .  A
C1123      N1130   1.439       .  S
C1124      C1125   1.413       .  A
C1124      H1129   1.081       .  S
C1125      C1126   1.413       .  A
C1126      N1127   1.437       .  S
N1127      H1131   1.046       .  S
N1127      H1132   1.045       .  S
N1130      H1133   1.045       .  S
N1130      H1134   1.046       .  S
C1135      C1136   1.405       .  A
C1135      C1140   1.402   1_545  A
C1135      H1142   1.084       .  S
C1136      C1137   1.406   1_545  A
C1137      C1138   1.405       .  A
C1137      N1144   1.433       .  S
C1138      C1139   1.417       .  A
C1138      H1143   1.079       .  S
C1139      C1140   1.424       .  A
C1140      N1141   1.433   1_565  S
N1141      H1145   1.043   1_545  S
N1141      H1146   1.043       .  S
N1144      H1147   1.046   1_565  S
N1144      H1148   1.046       .  S
C1149      C1150   1.408       .  A
C1149      C1154   1.415   1_455  A
C1149      H1156   1.080       .  S
C1150      C1151   1.408   1_455  A
C1151      C1152   1.399       .  A
C1151      N1158   1.433       .  S
C1152      C1153   1.406       .  A
C1152      H1157   1.084       .  S
C1153      C1154   1.425       .  A
C1154      N1155   1.439       .  S
N1155      H1159   1.046   1_655  S
N1155      H1160   1.039       .  S
N1158      H1161   1.045       .  S
N1158      H1162   1.046       .  S
C1163      C1164   1.405       .  A
C1163      C1168   1.405       .  A
C1163      H1170   1.084       .  S
C1164      C1165   1.406       .  A
C1165      C1166   1.408       .  A
C1165      N1172   1.438       .  S
C1166      C1167   1.411       .  A
C1166      H1171   1.073       .  S
C1167      C1168   1.417       .  A
C1168      N1169   1.438       .  S
N1169      H1173   1.046       .  S
N1169      H1174   1.045       .  S
N1172      H1175   1.045       .  S
N1172      H1176   1.046       .  S
C1177      C1178   1.402       .  A
C1177      C1182   1.408       .  A
C1177      H1184   1.078       .  S
C1178      C1179   1.415       .  A
C1179      C1180   1.397       .  A
C1179      N1186   1.438       .  S
C1180      C1181   1.406       .  A
C1180      H1185   1.083       .  S
C1181      C1182   1.416       .  A
C1182      N1183   1.437       .  S
N1183      H1187   1.046       .  S
N1183      H1188   1.045       .  S
N1186      H1189   1.045       .  S
N1186      H1190   1.045       .  S
C1191      C1192   1.396       .  A
C1191      C1196   1.404       .  A
C1191      H1198   1.084       .  S
C1192      C1193   1.413       .  A
C1193      C1194   1.409       .  A
C1193      N1200   1.438       .  S
C1194      C1195   1.406       .  A
C1194      H1199   1.084       .  S
C1195      C1196   1.418       .  A
C1196      N1197   1.427       .  S
N1197      H1201   1.045       .  S
N1197      H1202   1.046       .  S
N1200      H1203   1.046       .  S
N1200      H1204   1.046       .  S
C1205      C1206   1.405       .  A
C1205      C1210   1.407       .  A
C1205      H1212   1.084       .  S
C1206      C1207   1.411       .  A
C1207      C1208   1.409       .  A
C1207      N1214   1.432       .  S
C1208      C1209   1.412       .  A
C1208      H1213   1.075       .  S
C1209      C1210   1.413       .  A
C1210      N1211   1.433       .  S
N1211      H1215   1.046       .  S
N1211      H1216   1.045       .  S
N1214      H1217   1.046       .  S
N1214      H1218   1.045       .  S
C1219      C1220   1.406       .  A
C1219      C1224   1.407       .  A
C1219      H1226   1.082       .  S
C1220      C1221   1.414       .  A
C1221      C1222   1.401       .  A
C1221      N1228   1.432       .  S
C1222      C1223   1.406       .  A
C1222      H1227   1.084       .  S
C1223      C1224   1.414       .  A
C1224      N1225   1.432       .  S
N1225      H1229   1.045       .  S
N1225      H1230   1.046       .  S
N1228      H1231   1.045       .  S
N1228      H1232   1.046       .  S
C1233      C1234   1.412       .  A
C1233      C1238   1.408       .  A
C1233      H1240   1.083       .  S
C1234      C1235   1.411       .  A
C1235      C1236   1.401       .  A
C1235      N1242   1.432       .  S
C1236      C1237   1.408       .  A
C1236      H1241   1.084       .  S
C1237      C1238   1.412       .  A
C1238      N1239   1.432       .  S
N1239      H1243   1.045       .  S
N1239      H1244   1.046       .  S
N1242      H1245   1.046       .  S
N1242      H1246   1.045       .  S
C1247      C1248   1.413       .  A
C1247      C1252   1.394       .  A
C1247      H1254   1.081       .  S
C1248      C1249   1.414       .  A
C1249      C1250   1.410       .  A
C1249      N1256   1.438       .  S
C1250      C1251   1.409       .  A
C1250      H1255   1.084       .  S
C1251      C1252   1.406       .  A
C1252      N1253   1.433       .  S
N1253      H1257   1.045       .  S
N1253      H1258   1.045       .  S
N1256      H1259   1.044       .  S
N1256      H1260   1.046       .  S
C1261      C1262   1.415       .  A
C1261      C1266   1.408       .  A
C1261      H1268   1.079       .  S
C1262      C1263   1.419       .  A
C1263      C1264   1.406       .  A
C1263      N1270   1.438       .  S
C1264      C1265   1.402       .  A
C1264      H1269   1.084       .  S
C1265      C1266   1.408       .  A
C1266      N1267   1.438       .  S
N1267      H1271   1.045       .  S
N1267      H1272   1.046       .  S
N1270      H1273   1.045       .  S
N1270      H1274   1.046       .  S
C1275      C1276   1.405       .  A
C1275      C1280   1.405       .  A
C1275      H1282   1.084       .  S
C1276      C1277   1.403       .  A
C1277      C1278   1.407       .  A
C1277      N1284   1.437       .  S
C1278      C1279   1.412       .  A
C1278      H1283   1.075       .  S
C1279      C1280   1.416       .  A
C1280      N1281   1.437       .  S
N1281      H1285   1.045       .  S
N1281      H1286   1.046       .  S
N1284      H1287   1.045       .  S
N1284      H1288   1.046       .  S
C1289      C1290   1.409       .  A
C1289      C1294   1.400       .  A
C1289      H1296   1.084       .  S
C1290      C1291   1.414       .  A
C1291      C1292   1.412       .  A
C1291      N1298   1.430       .  S
C1292      C1293   1.411       .  A
C1292      H1297   1.084       .  S
C1293      C1294   1.421       .  A
C1294      N1295   1.433       .  S
N1295      H1299   1.045       .  S
N1295      H1300   1.045       .  S
N1298      H1301   1.045       .  S
N1298      H1302   1.046       .  S
C1303      C1304   1.409       .  A
C1303      C1308   1.398       .  A
C1303      H1310   1.078       .  S
C1304      C1305   1.408       .  A
C1305      C1306   1.407       .  A
C1305      N1312   1.437       .  S
C1306      C1307   1.404       .  A
C1306      H1311   1.084       .  S
C1307      C1308   1.404       .  A
C1308      N1309   1.432       .  S
N1309      H1313   1.045       .  S
N1309      H1314   1.046       .  S
N1312      H1315   1.046       .  S
N1312      H1316   1.045       .  S
C1317      C1318   1.405       .  A
C1317      C1322   1.398       .  A
C1317      H1324   1.084       .  S
C1318      C1319   1.413       .  A
C1319      C1320   1.412       .  A
C1319      N1326   1.432       .  S
C1320      C1321   1.407       .  A
C1320      H1325   1.082       .  S
C1321      C1322   1.418       .  A
C1322      N1323   1.439       .  S
N1323      H1327   1.045       .  S
N1323      H1328   1.043       .  S
N1326      H1329   1.045       .  S
N1326      H1330   1.046       .  S
C1331      C1332   1.414       .  A
C1331      C1336   1.417       .  A
C1331      H1338   1.080       .  S
C1332      C1333   1.418       .  A
C1333      C1334   1.406       .  A
C1333      N1340   1.438       .  S
C1334      C1335   1.406       .  A
C1334      H1339   1.084       .  S
C1335      C1336   1.410       .  A
C1336      N1337   1.436       .  S
N1337      H1341   1.046       .  S
N1337      H1342   1.045       .  S
N1340      H1343   1.045       .  S
N1340      H1344   1.046       .  S
C1345      C1346   1.408       .  A
C1345      C1350   1.400       .  A
C1345      H1352   1.084       .  S
C1346      C1347   1.414       .  A
C1347      C1348   1.407       .  A
C1347      N1354   1.433       .  S
C1348      C1349   1.405       .  A
C1348      H1353   1.078       .  S
C1349      C1350   1.417       .  A
C1350      N1351   1.439       .  S
N1351      H1355   1.046       .  S
N1351      H1356   1.045       .  S
N1354      H1357   1.046       .  S
N1354      H1358   1.046       .  S
C1359      C1360   1.411       .  A
C1359      C1364   1.408       .  A
C1359      H1366   1.077       .  S
C1360      C1361   1.413       .  A
C1361      C1362   1.401       .  A
C1361      N1368   1.433       .  S
C1362      C1363   1.405       .  A
C1362      H1367   1.084       .  S
C1363      C1364   1.401       .  A
C1364      N1365   1.431       .  S
N1365      H1369   1.046       .  S
N1365      H1370   1.045       .  S
N1368      H1371   1.045       .  S
N1368      H1372   1.045       .  S
C1373      C1374   1.413       .  A
C1373      C1378   1.407       .  A
C1373      H1380   1.081       .  S
C1374      C1375   1.417       .  A
C1375      C1376   1.404       .  A
C1375      N1382   1.438       .  S
C1376      C1377   1.405       .  A
C1376      H1381   1.084       .  S
C1377      C1378   1.403       .  A
C1378      N1379   1.437       .  S
N1379      H1383   1.046       .  S
N1379      H1384   1.046       .  S
N1382      H1385   1.044       .  S
N1382      H1386   1.046       .  S
C1387      C1388   1.412       .  A
C1387      C1392   1.404       .  A
C1387      H1394   1.079       .  S
C1388      C1389   1.415       .  A
C1389      C1390   1.401       .  A
C1389      N1396   1.432       .  S
C1390      C1391   1.404       .  A
C1390      H1395   1.084       .  S
C1391      C1392   1.410       .  A
C1392      N1393   1.438       .  S
N1393      H1397   1.046       .  S
N1393      H1398   1.045       .  S
N1396      H1399   1.046       .  S
N1396      H1400   1.046       .  S
C1401      C1402   1.402       .  A
C1401      C1406   1.411       .  A
C1401      H1408   1.084       .  S
C1402      C1403   1.420       .  A
C1403      C1404   1.395       .  A
C1403      N1410   1.426       .  S
C1404      C1405   1.396       .  A
C1404      H1409   1.084       .  S
C1405      C1406   1.418       .  A
C1406      N1407   1.437       .  S
N1407      H1411   1.046       .  S
N1407      H1412   1.046       .  S
N1410      H1413   1.040       .  S
N1410      H1414   1.043       .  S
C1415      C1416   1.399       .  A
C1415      C1420   1.409       .  A
C1415      H1422   1.083       .  S
C1416      C1417   1.413       .  A
C1417      C1418   1.404       .  A
C1417      N1424   1.438       .  S
C1418      C1419   1.402       .  A
C1418      H1423   1.084       .  S
C1419      C1420   1.413       .  A
C1420      N1421   1.428       .  S
N1421      H1425   1.045       .  S
N1421      H1426   1.044       .  S
N1424      H1427   1.046       .  S
N1424      H1428   1.045       .  S
