geometry optimzed in LAMMPS
_audit_creation_date              2020-11-30 
_audit_creation_method            'lammps2cif' 
_symmetry_space_group_name_H-M    'P1' 
_symmetry_Int_Tables_number       1 
_symmetry_cell_setting            triclinic 
loop_ 
_symmetry_equiv_pos_as_xyz 
  x,y,z 
_cell_length_a                    26.348754943298186 
_cell_length_b                    26.354762034668447 
_cell_length_c                    91.12529087092216 
_cell_angle_alpha                 90.0017715417886 
_cell_angle_beta                  90.00104195186461 
_cell_angle_gamma                 89.99968480181413 
loop_ 
_atom_site_label 
_atom_site_type_symbol 
_atom_site_fract_x 
_atom_site_fract_y 
_atom_site_fract_z 
_atom_site_charge 
O1          O  0.31761231  0.19620627  0.75005528    -0.71050
O2          O  0.23347896  0.30445067  0.73084490    -0.72030
O3          O  0.31758515  0.30404136  0.75006344    -0.60650
O4          O  0.23349758  0.19574846  0.73084685    -0.69060
O5          O  0.18283802  0.19619452  0.75032137    -0.68620
O6          O  0.26693456  0.30444094  0.76953967    -0.59870
O7          O  0.18283088  0.30402059  0.75032158    -0.72380
O8          O  0.26695074  0.19573110  0.76952906    -0.71160
Cu9        Cu  0.27739612  0.25011351  0.73979048     1.04560
Cu10       Cu  0.22303778  0.25009755  0.76059013     1.04330
C11         C  0.30543050  0.17844905  0.76261309     0.95150
C12         C  0.19499902  0.32174216  0.73775769     0.94280
C13         C  0.30540525  0.32175426  0.76262778     0.86430
C14         C  0.19502006  0.17845678  0.73776127     0.92700
O15         O  0.81747214  0.30425165  0.75031094    -0.71050
O16         O  0.73340423  0.19596193  0.76954333    -0.72030
O17         O  0.81751122  0.19640614  0.75031693    -0.60650
O18         O  0.73337215  0.30467680  0.76953623    -0.69060
O19         O  0.68271194  0.30421310  0.75006225    -0.68620
O20         O  0.76685529  0.19594724  0.73084214    -0.59870
O21         O  0.68274876  0.19636759  0.75006827    -0.72380
O22         O  0.76681408  0.30466271  0.73083635    -0.71160
Cu23       Cu  0.77729256  0.25032518  0.76058858     1.04560
Cu24       Cu  0.72292958  0.25029614  0.73979063     1.04330
C25         C  0.80529473  0.32196825  0.73774690     0.95150
C26         C  0.69492390  0.17865429  0.76263292     0.94280
C27         C  0.80534699  0.17867061  0.73775368     0.86430
C28         C  0.69488150  0.32195349  0.76262440     0.92700
N29         N  0.90016799  0.48034995  0.69817270    -0.25400
N30         N  0.92633195  0.47818986  0.71049633    -0.33260
C31         C  0.90305241  0.44709502  0.71995281     0.02940
C32         C  0.85979148  0.42810611  0.71332036     0.08970
C33         C  0.85880025  0.45048902  0.69951857    -0.04130
H34         H  0.91916659  0.43624159  0.73039286     0.09630
H35         H  0.83198458  0.44292210  0.69079796     0.10830
Cu36       Cu  0.00024147  0.50165478  0.71243330     0.44170
Cu37       Cu  0.92955928  0.51859048  0.68010706     0.41990
Cu38       Cu  0.07096246  0.51839546  0.68011025     0.43880
N39         N  0.07411264  0.47806124  0.71050359    -0.32780
N40         N  0.10028300  0.48016610  0.69818074    -0.27040
C41         C  0.14161369  0.45026140  0.69953057    -0.03140
C42         C  0.14058999  0.42790351  0.71333409     0.09080
C43         C  0.09735222  0.44695153  0.71996443     0.02870
H44         H  0.16842219  0.44265040  0.69081156     0.10520
H45         H  0.08123000  0.43613638  0.73040665     0.09600
N46         N  0.02550491  0.56283309  0.66652342    -0.34230
N47         N  0.97516185  0.56291868  0.66652201    -0.26410
C48         C  0.95867976  0.59950723  0.65738598    -0.01650
C49         C  0.00045176  0.62328727  0.65140683     0.06960
C50         C  0.04212758  0.59935942  0.65738954     0.05050
H51         H  0.91923717  0.60934818  0.65569923     0.10160
H52         H  0.08160713  0.60906021  0.65570764     0.08990
N53         N  0.90017881  0.02022031  0.69818644    -0.25400
N54         N  0.92632458  0.02233484  0.71051451    -0.33260
C55         C  0.90306952  0.05346005  0.71996959     0.02940
C56         C  0.85984668  0.07251175  0.71333140     0.08970
C57         C  0.85885110  0.05013827  0.69952838    -0.04130
H58         H  0.91916679  0.06427666  0.73041535     0.09630
H59         H  0.83205704  0.05774146  0.69080499     0.10830
Cu60       Cu  0.00018525  0.99870605  0.71246651     0.44170
Cu61       Cu  0.92951318  0.98195658  0.68011463     0.41990
Cu62       Cu  0.07086879  0.98200445  0.68012509     0.43880
N63         N  0.07412215  0.02211566  0.71054252    -0.32780
N64         N  0.10026483  0.02003195  0.69821427    -0.27040
C65         C  0.14163105  0.04988079  0.69956467    -0.03140
C66         C  0.14066231  0.07218987  0.71337369     0.09080
C67         C  0.09742473  0.05315885  0.72000909     0.02870
H68         H  0.16840553  0.05752008  0.69083915     0.10520
H69         H  0.08133050  0.06397095  0.73045539     0.09600
N70         N  0.02540636  0.93772136  0.66650733    -0.34230
N71         N  0.97506490  0.93766403  0.66650294    -0.26410
C72         C  0.95857541  0.90111811  0.65735259    -0.01650
C73         C  0.00034745  0.87734345  0.65136881     0.06960
C74         C  0.04202400  0.90122731  0.65736291     0.05050
H75         H  0.91913185  0.89128323  0.65566489     0.10160
H76         H  0.08150011  0.89149586  0.65568857     0.08990
N77         N  0.39998638  0.48028257  0.80219777    -0.25400
N78         N  0.42613991  0.47820723  0.78987114    -0.33260
C79         C  0.40291155  0.44708653  0.78041076     0.02940
C80         C  0.35970323  0.42799357  0.78704513     0.08970
C81         C  0.35867930  0.45034278  0.80085039    -0.04130
H82         H  0.41903051  0.43628893  0.76996640     0.09630
H83         H  0.33189453  0.44269612  0.80957273     0.10830
Cu84       Cu  0.50000748  0.50179955  0.78793207     0.44170
Cu85       Cu  0.42930351  0.51850436  0.82027292     0.41990
Cu86       Cu  0.57068612  0.51861528  0.82025890     0.43880
N87         N  0.57389776  0.47826277  0.78986384    -0.32780
N88         N  0.60005834  0.48039549  0.80218843    -0.27040
C89         C  0.64140685  0.45051026  0.80084238    -0.03140
C90         C  0.64040653  0.42813511  0.78703981     0.09080
C91         C  0.59716095  0.44715497  0.78040619     0.02870
H92         H  0.66821189  0.44291935  0.80956385     0.10520
H93         H  0.58104921  0.43631696  0.76996420     0.09600
N94         N  0.52514301  0.56293368  0.83386085    -0.34230
N95         N  0.47480037  0.56288962  0.83386679    -0.26410
C96         C  0.45822744  0.59940698  0.84301272    -0.01650
C97         C  0.49993870  0.62328151  0.84899502     0.06960
C98         C  0.54167554  0.59948101  0.84300301     0.05050
H99         H  0.41875994  0.60913980  0.84470318     0.10160
H100        H  0.58113020  0.60928335  0.84468487     0.08990
N101        N  0.40008411  0.01984337  0.80212871    -0.25400
N102        N  0.42626394  0.02198392  0.78980779    -0.33260
C103        C  0.40299869  0.05308224  0.78034860     0.02940
C104        C  0.35974431  0.07209115  0.78698035     0.08970
C105        C  0.35872880  0.04971129  0.80077987    -0.04130
H106        H  0.41912774  0.06394354  0.76991122     0.09630
H107        H  0.33192842  0.05731405  0.80950156     0.10830
Cu108      Cu  0.50020128  0.99856748  0.78789222     0.44170
Cu109      Cu  0.42943556  0.98172786  0.82021271     0.41990
Cu110      Cu  0.57078911  0.98191190  0.82026247     0.43880
N111        N  0.57404105  0.02224196  0.78985992    -0.32780
N112        N  0.60014846  0.02017277  0.80219532    -0.27040
C113        C  0.64145378  0.05012505  0.80086096    -0.03140
C114        C  0.64048184  0.07247387  0.78705489     0.09080
C115        C  0.59729883  0.05337019  0.78040727     0.02870
H116        H  0.66821188  0.05776808  0.80959078     0.10520
H117        H  0.58122452  0.06415299  0.76995586     0.09600
N118        N  0.52527261  0.93756119  0.83386570    -0.34230
N119        N  0.47493091  0.93751483  0.83384649    -0.26410
C120        C  0.45836240  0.90101327  0.84299640    -0.01650
C121        C  0.50007331  0.87723763  0.84900920     0.06960
C122        C  0.54181069  0.90108191  0.84303009     0.05050
H123        H  0.41890128  0.89121239  0.84466600     0.10160
H124        H  0.58127053  0.89134468  0.84473323     0.08990
C125        C  0.00068417  0.75027069  0.62520311    -0.00600
O126        O  0.55511317  0.01743790  0.48091801    -0.71050
O127        O  0.44682785  0.93334747  0.50012624    -0.72030
O128        O  0.44640007  0.01738272  0.48089675    -0.60650
O129        O  0.55466393  0.93340137  0.50014459    -0.69060
O130        O  0.55505595  0.98406503  0.51961642    -0.68620
O131        O  0.44675262  0.06806984  0.50036346    -0.59870
O132        O  0.44631936  0.98401036  0.51959770    -0.72380
O133        O  0.55462206  0.06812947  0.50038323    -0.71160
Cu134      Cu  0.50075330  0.97354332  0.48986014     1.04560
Cu135      Cu  0.50068475  0.02792663  0.51065235     1.04330
C136        C  0.57238725  0.05592864  0.48782657     0.95150
C137        C  0.42906933  0.94551325  0.51268602     0.94280
C138        C  0.42906090  0.05585581  0.48779910     0.86430
C139        C  0.57236373  0.94558361  0.51270969     0.92700
O140        O  0.44644688  0.51651034  0.51959484    -0.71050
O141        O  0.55474934  0.43244255  0.50036779    -0.72030
O142        O  0.55518199  0.51649806  0.51960239    -0.60650
O143        O  0.44687745  0.43246426  0.50034950    -0.69060
O144        O  0.44651219  0.48315464  0.48088473    -0.68620
O145        O  0.55474167  0.56717531  0.50013453    -0.59870
O146        O  0.55523135  0.48314656  0.48090602    -0.72380
O147        O  0.44690558  0.56717636  0.50012491    -0.71160
Cu148      Cu  0.50081134  0.47262004  0.51064052     1.04560
Cu149      Cu  0.50084742  0.52701239  0.48985136     1.04330
C150        C  0.42917371  0.55500364  0.51268744     0.95150
C151        C  0.57251784  0.44465965  0.48781351     0.94280
C152        C  0.57246458  0.55499173  0.51269630     0.86430
C153        C  0.42918356  0.44467370  0.48778463     0.92700
N154        N  0.27075767  0.35025407  0.44814067    -0.25400
N155        N  0.27271751  0.32411396  0.46047008    -0.33260
C156        C  0.30380532  0.34730972  0.46994736     0.02940
C157        C  0.32299509  0.39048234  0.46332164     0.08970
C158        C  0.30073810  0.39152088  0.44950334    -0.04130
H159        H  0.31451639  0.33119231  0.48039906     0.09630
H160        H  0.30847860  0.41828357  0.44078376     0.10830
Cu161      Cu  0.24903074  0.25028768  0.46239606     0.44170
Cu162      Cu  0.23263710  0.32095583  0.43004460     0.41990
Cu163      Cu  0.23268446  0.17961444  0.43004989     0.43880
N164        N  0.27264592  0.17643366  0.46048317    -0.32780
N165        N  0.27070305  0.15029287  0.44815349    -0.27040
C166        C  0.30064793  0.10900565  0.44952082    -0.03140
C167        C  0.32286909  0.11003045  0.46334284     0.09080
C168        C  0.30369197  0.15321531  0.46996661     0.02870
H169        H  0.30840146  0.08224612  0.44080088     0.10520
H170        H  0.31439644  0.16933028  0.48041945     0.09600
N171        N  0.18834166  0.22509046  0.41644874    -0.34230
N172        N  0.18830679  0.27542082  0.41644664    -0.26410
C173        C  0.15171781  0.29193426  0.40731395    -0.01650
C174        C  0.12788668  0.25019296  0.40133820     0.06960
C175        C  0.15178178  0.20850430  0.40731872     0.05050
H176        H  0.14189291  0.33137576  0.40563406     0.10160
H177        H  0.14201737  0.16904436  0.40564494     0.08990
N178        N  0.73121450  0.35025411  0.44827711    -0.25400
N179        N  0.72922047  0.32413843  0.46061057    -0.33260
C180        C  0.69812296  0.34737434  0.47007723     0.02940
C181        C  0.67895983  0.39053522  0.46343679     0.08970
C182        C  0.70125221  0.39153572  0.44962504    -0.04130
H183        H  0.68736716  0.33128137  0.48052816     0.09630
H184        H  0.69351990  0.41826232  0.44089550     0.10830
Cu185      Cu  0.75279015  0.25026822  0.46254325     0.44170
Cu186      Cu  0.76925244  0.32091000  0.43017953     0.41990
Cu187      Cu  0.76915993  0.17961589  0.43017675     0.43880
N188        N  0.72908192  0.17644303  0.46060499    -0.32780
N189        N  0.73105547  0.15032323  0.44827144    -0.27040
C190        C  0.70105609  0.10906849  0.44961952    -0.03140
C191        C  0.67876377  0.11009061  0.46343152     0.09080
C192        C  0.69795913  0.15323898  0.47007130     0.02870
H193        H  0.69331508  0.08233578  0.44089173     0.10520
H194        H  0.68722530  0.16933527  0.48052406     0.09600
N195        N  0.81342759  0.22507463  0.41654829    -0.34230
N196        N  0.81345656  0.27540353  0.41654953    -0.26410
C197        C  0.84996174  0.29193742  0.40739383    -0.01650
C198        C  0.87375008  0.25021105  0.40139835     0.06960
C199        C  0.84991512  0.20850617  0.40739128     0.05050
H200        H  0.85976689  0.33138313  0.40571280     0.10160
H201        H  0.85967677  0.16905066  0.40570737     0.08990
N202        N  0.27093788  0.65013165  0.55227043    -0.25400
N203        N  0.27319363  0.67630889  0.53995231    -0.33260
C204        C  0.30428242  0.65299559  0.53050077     0.02940
C205        C  0.32316532  0.60969121  0.53712981     0.08970
C206        C  0.30073232  0.60871816  0.55092598    -0.04130
H207        H  0.31518877  0.66910169  0.52006486     0.09630
H208        H  0.30820226  0.58186394  0.55964183     0.10830
Cu209      Cu  0.24977002  0.75021115  0.53800904     0.44170
Cu210      Cu  0.23259977  0.67953523  0.57031817     0.41990
Cu211      Cu  0.23247991  0.82096528  0.57029111     0.43880
N212        N  0.27309451  0.82415273  0.53992958    -0.32780
N213        N  0.27078129  0.85036812  0.55224029    -0.27040
C214        C  0.30053036  0.89181005  0.55089194    -0.03140
C215        C  0.32299908  0.89081712  0.53710134     0.09080
C216        C  0.30418108  0.84747053  0.53047850     0.02870
H217        H  0.30795799  0.91869262  0.55960396     0.10520
H218        H  0.31514038  0.83133937  0.52005011     0.09600
N219        N  0.18810725  0.77541514  0.58387531    -0.34230
N220        N  0.18814630  0.72508205  0.58388610    -0.26410
C221        C  0.15160273  0.70853351  0.59302927    -0.01650
C222        C  0.12772057  0.75024748  0.59900471     0.06960
C223        C  0.15154037  0.79196097  0.59301074     0.05050
H224        H  0.14187050  0.66907841  0.59472702     0.10160
H225        H  0.14175027  0.83141139  0.59469069     0.08990
N226        N  0.73052467  0.85045425  0.55230176    -0.25400
N227        N  0.72827605  0.82426873  0.53998461    -0.33260
C228        C  0.69722890  0.84760429  0.53052678     0.02940
C229        C  0.67836579  0.89092644  0.53715239     0.08970
C230        C  0.70076949  0.89189058  0.55095163    -0.04130
H231        H  0.68632662  0.83149738  0.52009027     0.09630
H232        H  0.69329453  0.91874774  0.55966678     0.10830
Cu233      Cu  0.75162945  0.75033598  0.53805015     0.44170
Cu234      Cu  0.76876804  0.82103947  0.57035781     0.41990
Cu235      Cu  0.76881803  0.67959832  0.57033675     0.43880
N236        N  0.72834104  0.67637623  0.53996478    -0.32780
N237        N  0.73062049  0.65017026  0.55227708    -0.27040
C238        C  0.70090487  0.60870929  0.55092241    -0.03140
C239        C  0.67848960  0.60967718  0.53712532     0.09080
C240        C  0.69730751  0.65302873  0.53050496     0.02870
H241        H  0.69345551  0.58183556  0.55963461     0.10520
H242        H  0.68637689  0.66914549  0.52007242     0.09600
N243        N  0.81320312  0.72514250  0.58391093    -0.34230
N244        N  0.81319220  0.77547486  0.58391936    -0.26410
C245        C  0.84978581  0.79201070  0.59304667    -0.01650
C246        C  0.87366889  0.75028637  0.59901202     0.06960
C247        C  0.84980085  0.70858158  0.59303193     0.05050
H248        H  0.85955902  0.83146064  0.59473575     0.10160
H249        H  0.85958746  0.66912783  0.59470652     0.08990
O250        O  0.81805005  0.69600148  0.25007548    -0.71050
O251        O  0.73421864  0.80439152  0.23081140    -0.72030
O252        O  0.81823122  0.80383610  0.25006988    -0.60650
O253        O  0.73403319  0.69566171  0.23082365    -0.69060
O254        O  0.68330843  0.69621187  0.25028334    -0.68620
O255        O  0.76748790  0.80435242  0.26952550    -0.59870
O256        O  0.68349079  0.80404151  0.25027066    -0.72380
O257        O  0.76732761  0.69564686  0.26953604    -0.71160
Cu258      Cu  0.77798942  0.74996793  0.23978347     1.04560
Cu259      Cu  0.72354775  0.75006641  0.26056447     1.04330
C260        C  0.80581432  0.67830404  0.26263645     0.95150
C261        C  0.69573934  0.82174761  0.23771132     0.94280
C262        C  0.80602302  0.82158867  0.26262747     0.86430
C263        C  0.69550080  0.67844040  0.23772760     0.92700
O264        O  0.31801420  0.80433892  0.25029756    -0.71050
O265        O  0.23424965  0.69603063  0.26960319    -0.72030
O266        O  0.31813730  0.69652868  0.25030405    -0.60650
O267        O  0.23410907  0.80472575  0.26958299    -0.69060
O268        O  0.18328810  0.80420072  0.25014307    -0.68620
O269        O  0.26729868  0.69602253  0.23086804    -0.59870
O270        O  0.18341756  0.69638553  0.25016559    -0.72380
O271        O  0.26720175  0.80471139  0.23085553    -0.71160
Cu272      Cu  0.27798789  0.75040974  0.26060726     1.04560
Cu273      Cu  0.22343981  0.75032682  0.23984784     1.04330
C274        C  0.30573150  0.82203061  0.23774032     0.95150
C275        C  0.19572049  0.67869718  0.26272292     0.94280
C276        C  0.30586445  0.67878411  0.23775089     0.86430
C277        C  0.19554839  0.82195766  0.26269467     0.92700
N278        N  0.90054683  0.98013033  0.30220743    -0.25400
N279        N  0.92677503  0.97800403  0.28989482    -0.33260
C280        C  0.90357905  0.94687578  0.28042897     0.02940
C281        C  0.86031329  0.92783625  0.28704547     0.08970
C282        C  0.85922299  0.95022293  0.30084502    -0.04130
H283        H  0.91974533  0.93604334  0.26999366     0.09630
H284        H  0.83237905  0.94262009  0.30955534     0.10830
Cu285      Cu  0.00065912  0.00159250  0.28798912     0.44170
Cu286      Cu  0.92979556  0.01833713  0.32029409     0.41990
Cu287      Cu  0.07119098  0.01820326  0.32035777     0.43880
N288        N  0.07458021  0.97816427  0.28993742    -0.32780
N289        N  0.10067466  0.98020961  0.30227480    -0.27040
C290        C  0.14205472  0.95037476  0.30092867    -0.03140
C291        C  0.14114117  0.92811507  0.28711217     0.09080
C292        C  0.09792378  0.94716215  0.28046923     0.02870
H293        H  0.16880471  0.94271755  0.30965945     0.10520
H294        H  0.08187591  0.93640160  0.27001246     0.09600
N295        N  0.02564176  0.06249319  0.33394973    -0.34230
N296        N  0.97529995  0.06257179  0.33392625    -0.26410
C297        C  0.95876048  0.09911828  0.34306714    -0.01650
C298        C  0.00049808  0.12287068  0.34907479     0.06960
C299        C  0.04220924  0.09897899  0.34310422     0.05050
H300        H  0.91930919  0.10897111  0.34473080     0.10160
H301        H  0.08167648  0.10870188  0.34480027     0.08990
N302        N  0.40047073  0.52032059  0.19817046    -0.25400
N303        N  0.42661201  0.52241013  0.21049887    -0.33260
C304        C  0.40336629  0.55352327  0.21995590     0.02940
C305        C  0.36015708  0.57259996  0.21331773     0.08970
C306        C  0.35914960  0.55024539  0.19951290    -0.04130
H307        H  0.41946513  0.56430649  0.23040408     0.09630
H308        H  0.33236007  0.55786657  0.19078958     0.10830
Cu309      Cu  0.50046266  0.49878942  0.21245470     0.44170
Cu310      Cu  0.42982078  0.48204308  0.18011348     0.41990
Cu311      Cu  0.57128592  0.48148308  0.18019518     0.43800
N312        N  0.57442424  0.52211847  0.21054997    -0.32780
N313        N  0.60067247  0.51978049  0.19824500    -0.27040
C314        C  0.64208560  0.54957700  0.19958812    -0.03140
C315        C  0.64103255  0.57211572  0.21336777     0.09080
C316        C  0.59769092  0.55327598  0.21999220     0.02870
H317        H  0.66896680  0.55701108  0.19087525     0.10520
H318        H  0.58152106  0.56427207  0.23041257     0.09600
N319        N  0.52563965  0.43727894  0.16659630    -0.34230
N320        N  0.47529625  0.43749547  0.16656263    -0.26410
C321        C  0.45865841  0.40103215  0.15740970    -0.01650
C322        C  0.50032687  0.37701856  0.15145285     0.06960
C323        C  0.54210620  0.40067155  0.15746589     0.05050
H324        H  0.41916861  0.39144469  0.15569329     0.10160
H325        H  0.58153889  0.39074723  0.15580081     0.08990
N326        N  0.90070682  0.52006230  0.30225001    -0.25400
N327        N  0.92699984  0.52237554  0.28995340    -0.33260
C328        C  0.90373482  0.55345487  0.28049089     0.02940
C329        C  0.86033464  0.57226497  0.28709084     0.08970
C330        C  0.85926038  0.54980176  0.30088138    -0.04130
H331        H  0.91994137  0.56441846  0.27007281     0.09630
H332        H  0.83232278  0.55722941  0.30958032     0.10830
Cu333      Cu  0.00096628  0.49904809  0.28807801     0.44170
Cu334      Cu  0.93007468  0.48176979  0.32030245     0.41990
Cu335      Cu  0.07163006  0.48202484  0.32038572     0.43880
N336        N  0.07485656  0.52253558  0.29002282    -0.32780
N337        N  0.10103436  0.52036558  0.30234304    -0.27040
C338        C  0.14240521  0.55022519  0.30099406    -0.03140
C339        C  0.14139171  0.57261142  0.28719187     0.09080
C340        C  0.09812118  0.55362553  0.28056523     0.02870
H341        H  0.16924298  0.55777556  0.30971025     0.10520
H342        H  0.08199014  0.56446117  0.27012614     0.09600
N343        N  0.02600868  0.43743205  0.33389047    -0.34230
N344        N  0.97566238  0.43734487  0.33385765    -0.26410
C345        C  0.95910139  0.40069243  0.34295773    -0.01650
C346        C  0.00081539  0.37686941  0.34895026     0.06960
C347        C  0.04254839  0.40083304  0.34301339     0.05050
H348        H  0.91964179  0.39086975  0.34461952     0.10160
H349        H  0.08201352  0.39114056  0.34472792     0.08990
N350        N  0.40075068  0.98000849  0.19808914    -0.25400
N351        N  0.42690681  0.97788977  0.21041377    -0.33260
C352        C  0.40355988  0.94691506  0.21988730     0.02940
C353        C  0.36026211  0.92796717  0.21326313     0.08970
C354        C  0.35932130  0.95024650  0.19944870    -0.04130
H355        H  0.41964795  0.93611615  0.23033523     0.09630
H356        H  0.33249583  0.94267430  0.19073095     0.10830
Cu357      Cu  0.50083855  0.00130333  0.21234011     0.44170
Cu358      Cu  0.43021429  0.01809229  0.18002035     0.41990
Cu359      Cu  0.57171330  0.01852394  0.18007282     0.43880
N360        N  0.57480120  0.97796695  0.21043964    -0.32780
N361        N  0.60106324  0.98024126  0.19813586    -0.27040
C362        C  0.64246973  0.95043859  0.19949637    -0.03140
C363        C  0.64140035  0.92797553  0.21328734     0.09080
C364        C  0.59805362  0.94686064  0.21989773     0.02870
H365        H  0.66936292  0.94295537  0.19078993     0.10520
H366        H  0.58186120  0.93592117  0.23031978     0.09600
N367        N  0.52604629  0.06277761  0.16648507    -0.34230
N368        N  0.47570211  0.06257838  0.16646525    -0.26410
C369        C  0.45903620  0.09907479  0.15733021    -0.01650
C370        C  0.50067902  0.12310192  0.15136817     0.06960
C371        C  0.54248320  0.09941876  0.15736040     0.05050
H372        H  0.41954195  0.10868963  0.15563515     0.10160
H373        H  0.58190945  0.10935687  0.15568991     0.08990
C374        C  0.00073738  0.25002278  0.37519736    -0.00600
O375        O  0.05436836  0.48291170  0.01948444    -0.71050
O376        O  0.94597414  0.56680501  0.00025982    -0.72030
O377        O  0.94565348  0.48276676  0.01947739    -0.60650
O378        O  0.05380501  0.56696420  0.00026078    -0.69060
O379        O  0.05430920  0.51632269  0.98078444    -0.68620
O380        O  0.94614151  0.43207682  0.00001147    -0.59870
O381        O  0.94556656  0.51615849  0.98078446    -0.72380
O382        O  0.05401924  0.43224266  0.00001419    -0.71160
Cu383      Cu  0.99994832  0.52670864  0.01053187     1.04560
Cu384      Cu  0.00001346  0.47234132  0.98973619     1.04330
C385        C  0.07173127  0.44446102  0.01257636     0.95150
C386        C  0.92824492  0.55461935  0.98769833     0.94280
C387        C  0.92838791  0.44427177  0.01256969     0.86430
C388        C  0.07154031  0.55482789  0.98769629     0.92700
O389        O  0.94567449  0.98380697  0.98083524    -0.71050
O390        O  0.05400188  0.06788600  0.00006024    -0.72030
O391        O  0.05442125  0.98373628  0.98086031    -0.60650
O392        O  0.94612670  0.06796350  0.00003910    -0.69060
O393        O  0.94565362  0.01735604  0.01952178    -0.68620
O394        O  0.05389804  0.93314338  0.00034612    -0.59870
O395        O  0.05436972  0.01727325  0.01954184    -0.72380
O396        O  0.94605484  0.93323165  0.00032491    -0.71160
Cu397      Cu  0.00005865  0.02770230  0.98978571     1.04560
Cu398      Cu  0.99999003  0.97340569  0.01059552     1.04330
C399        C  0.92835490  0.94536012  0.98775517     0.95150
C400        C  0.07171064  0.05571677  0.01262619     0.94280
C401        C  0.07166865  0.94526656  0.98778503     0.86430
C402        C  0.92837430  0.05581694  0.01260135     0.92700
N403        N  0.76978855  0.15025116  0.05216869    -0.25400
N404        N  0.77166980  0.17632148  0.03982547    -0.33260
C405        C  0.80276462  0.15310530  0.03035312     0.02940
C406        C  0.82203296  0.11000437  0.03699988     0.08970
C407        C  0.79981628  0.10901910  0.05082134    -0.04130
H408        H  0.81343544  0.16916596  0.01989060     0.09630
H409        H  0.80763309  0.08233426  0.05955528     0.10830
Cu410      Cu  0.74790869  0.25012606  0.03787751     0.44170
Cu411      Cu  0.73178790  0.17957116  0.07027578     0.41990
Cu412      Cu  0.73173861  0.32082161  0.07025201     0.43880
N413        N  0.77158084  0.32396649  0.03979869    -0.32780
N414        N  0.76968965  0.35008668  0.05213340    -0.27040
C415        C  0.79970848  0.39131842  0.05077495    -0.03140
C416        C  0.82193561  0.39027704  0.03695595     0.09080
C417        C  0.80267359  0.34715173  0.03032053     0.02870
H418        H  0.80752902  0.41802876  0.05950256     0.10520
H419        H  0.81335923  0.33104705  0.01986465     0.09600
N420        N  0.68755370  0.27537999  0.08389811    -0.34230
N421        N  0.68756468  0.22505255  0.08390684    -0.26410
C422        C  0.65105761  0.20851567  0.09306111    -0.01650
C423        C  0.62722952  0.25024285  0.09904351     0.06960
C424        C  0.65104202  0.29194809  0.09304596     0.05050
H425        H  0.64126383  0.16906844  0.09474472     0.10160
H426        H  0.64123425  0.33140000  0.09471449     0.08990
N427        N  0.22980243  0.65006169  0.94815872    -0.25400
N428        N  0.22760873  0.67615796  0.96049303    -0.33260
C429        C  0.19652672  0.65280367  0.96993780     0.02940
C430        C  0.17758467  0.60956600  0.96328537     0.08970
C431        C  0.19997849  0.60866636  0.94948497    -0.04130
H432        H  0.18566875  0.66883849  0.98038749     0.09630
H433        H  0.19245630  0.58188329  0.94075414     0.10830
Cu434      Cu  0.25108880  0.75003573  0.96247555     0.44170
Cu435      Cu  0.26806694  0.67951770  0.93010960     0.41990
Cu436      Cu  0.26831950  0.82088504  0.93019828     0.43880
N437        N  0.22779295  0.82399782  0.96057417    -0.32780
N438        N  0.23009971  0.85023480  0.94826733    -0.27040
C439        C  0.20034349  0.89166602  0.94962015    -0.03140
C440        C  0.17786980  0.89064648  0.96340828     0.09080
C441        C  0.19669724  0.84729821  0.97002780     0.02870
H442        H  0.19289603  0.91854618  0.94090940     0.10520
H443        H  0.18572376  0.83114909  0.98045244     0.09600
N444        N  0.31254544  0.77539147  0.91656356    -0.34230
N445        N  0.31245671  0.72506066  0.91653006    -0.26410
C446        C  0.34893120  0.70852178  0.90736285    -0.01650
C447        C  0.37281914  0.75024383  0.90139564     0.06960
C448        C  0.34907587  0.79195030  0.90741908     0.05050
H449        H  0.35863116  0.66906686  0.90564843     0.10160
H450        H  0.35891064  0.83139865  0.90575789     0.08990
N451        N  0.23028689  0.15019319  0.05220439    -0.25400
N452        N  0.22830963  0.17630269  0.03986979    -0.33260
C453        C  0.19720270  0.15308206  0.03040220     0.02940
C454        C  0.17801989  0.10992889  0.03704139     0.08970
C455        C  0.20030264  0.10892563  0.05085572    -0.04130
H456        H  0.18646608  0.16917443  0.01994943     0.09630
H457        H  0.19256745  0.08219427  0.05958372     0.10830
Cu458      Cu  0.25197951  0.25013537  0.03793243     0.44170
Cu459      Cu  0.26839784  0.17953085  0.07029434     0.41990
Cu460      Cu  0.26844801  0.32084760  0.07027995     0.43880
N461        N  0.22833710  0.32398128  0.03985492    -0.32780
N462        N  0.23032018  0.35013066  0.05218300    -0.27040
C463        C  0.20033297  0.39139394  0.05082399    -0.03140
C464        C  0.17804645  0.39034623  0.03700979     0.09080
C465        C  0.19722866  0.34717122  0.03038202     0.02870
H466        H  0.19259881  0.41815404  0.05954521     0.10520
H467        H  0.18648641  0.33104020  0.01993448     0.09600
N468        N  0.31273962  0.27535291  0.08389918    -0.34230
N469        N  0.31271473  0.22502282  0.08390399    -0.26410
C470        C  0.34923310  0.20846348  0.09305281    -0.01650
C471        C  0.37308857  0.25017118  0.09903853     0.06960
C472        C  0.34927703  0.29189329  0.09304540     0.05050
H473        H  0.35899400  0.16900890  0.09473822     0.10160
H474        H  0.35907985  0.33134096  0.09472444     0.08990
N475        N  0.76995744  0.64985701  0.94816019    -0.25400
N476        N  0.77230401  0.67603908  0.96047619    -0.33260
C477        C  0.80337773  0.65267269  0.96991996     0.02940
C478        C  0.82216214  0.60932903  0.96328714     0.08970
C479        C  0.79968035  0.60838927  0.94949722    -0.04130
H480        H  0.81435826  0.66877819  0.98034970     0.09630
H481        H  0.80708182  0.58152513  0.94077864     0.10830
Cu482      Cu  0.74906558  0.75000162  0.96241929     0.44170
Cu483      Cu  0.73162481  0.67933893  0.93012544     0.41990
Cu484      Cu  0.73163855  0.82081028  0.93015993     0.43880
N485        N  0.77243176  0.82393289  0.96050070    -0.32780
N486        N  0.77005744  0.85017759  0.94819680    -0.27040
C487        C  0.79980404  0.89162390  0.94954399    -0.03140
C488        C  0.82232986  0.89060639  0.96332750     0.09080
C489        C  0.80355401  0.84723444  0.96994603     0.02870
H490        H  0.80717657  0.91853769  0.94083668     0.10520
H491        H  0.81455609  0.83108113  0.98036754     0.09600
N492        N  0.68717411  0.77528247  0.91659159    -0.34230
N493        N  0.68717554  0.72494854  0.91657842    -0.26410
C494        C  0.65060415  0.70842722  0.90744069    -0.01650
C495        C  0.62674136  0.75015756  0.90147149     0.06960
C496        C  0.65060068  0.79185510  0.90746230     0.05050
H497        H  0.64085412  0.66897834  0.90573847     0.10160
H498        H  0.64084829  0.83131330  0.90577991     0.08990
C499        C  0.50017449  0.25016031  0.12521090    -0.00600
C500        C  0.49987250  0.75024558  0.87521001    -0.00600
C501        C  0.58273541  0.75018144  0.89215041    -0.11380
C502        C  0.54533718  0.75020329  0.88450258    -0.12940
C503        C  0.41715137  0.25015233  0.10833674    -0.11380
C504        C  0.45462003  0.25013989  0.11595551    -0.12940
C505        C  0.45430035  0.75025684  0.88445857    -0.11380
C506        C  0.41684528  0.75024888  0.89208291    -0.12940
C507        C  0.58314143  0.25025957  0.10832477    -0.11380
C508        C  0.54566626  0.25024664  0.11593670    -0.12940
C509        C  0.88727904  0.08709743  0.01876251    -0.14540
C510        C  0.86298735  0.07662097  0.03140983    -0.29720
H511        H  0.87656302  0.12002547  0.01235023     0.14480
H512        H  0.87388188  0.04377794  0.03788440     0.15060
C513        C  0.11281914  0.08696781  0.01879476    -0.14540
C514        C  0.13708101  0.07651700  0.03144977    -0.29720
H515        H  0.12356582  0.11987373  0.01237799     0.14480
H516        H  0.12617308  0.04368599  0.03792729     0.15060
C517        C  0.88731501  0.91400935  0.98158973    -0.14540
C518        C  0.86309941  0.92425399  0.96891284    -0.29720
H519        H  0.87660777  0.88114904  0.98803061     0.14480
H520        H  0.87392049  0.95707107  0.96241741     0.15060
C521        C  0.11271816  0.91390225  0.98163417    -0.14540
C522        C  0.13705912  0.92424507  0.96898568    -0.29720
H523        H  0.12333935  0.88097806  0.98806043     0.14480
H524        H  0.12630568  0.95711591  0.96250333     0.15060
C525        C  0.11286476  0.41325481  0.01875072    -0.14540
C526        C  0.13709978  0.42373282  0.03140892    -0.29720
H527        H  0.12364460  0.38035112  0.01233716     0.14480
H528        H  0.12616043  0.45656363  0.03788273     0.15060
C529        C  0.11253379  0.58622172  0.98152889    -0.14540
C530        C  0.13679351  0.57594201  0.96886254    -0.29720
H531        H  0.12318005  0.61912739  0.98795983     0.14480
H532        H  0.12599909  0.54310666  0.96237037     0.15060
C533        C  0.86294049  0.57567701  0.96886419    -0.14540
C534        C  0.88717199  0.58593019  0.98153776    -0.29720
H535        H  0.87376872  0.54287166  0.96236419     0.14480
H536        H  0.87646580  0.61878765  0.98798026     0.15060
C537        C  0.86291689  0.42361470  0.03136349    -0.14540
C538        C  0.88729686  0.41301514  0.01873929    -0.29720
H539        H  0.87375496  0.45652741  0.03781694     0.14480
H540        H  0.87664081  0.38001581  0.01234887     0.15060
C541        C  0.50049717  0.16716223  0.14207838    -0.11380
C542        C  0.50030514  0.20462265  0.13446328    -0.12940
C543        C  0.00080017  0.33284037  0.35825383    -0.11380
C544        C  0.00076306  0.29544535  0.36589664    -0.12940
C545        C  0.50016446  0.29562581  0.13449413    -0.11380
C546        C  0.50021593  0.33302539  0.14213527    -0.12940
C547        C  0.00055170  0.16694334  0.35836091    -0.11380
C548        C  0.00064779  0.20443552  0.36596400    -0.12940
C549        C  0.16448638  0.63764123  0.26892015    -0.14540
C550        C  0.17491130  0.61344669  0.28158787    -0.29720
H551        H  0.13155914  0.62690219  0.26250952     0.14480
H552        H  0.20777103  0.62433159  0.28805979     0.15060
C553        C  0.33700608  0.86306280  0.23154975    -0.14540
C554        C  0.32666172  0.88721438  0.21887209    -0.29720
H555        H  0.36991394  0.87380036  0.23796933     0.14480
H556        H  0.29382402  0.87633089  0.21239055     0.15060
C557        C  0.16423828  0.86298387  0.26887403    -0.14540
C558        C  0.17467991  0.88728730  0.28152083    -0.29720
H559        H  0.13125999  0.87361671  0.26246967     0.14480
H560        H  0.20757229  0.87648576  0.28799052     0.15060
C561        C  0.33715444  0.63775931  0.23156080    -0.14540
C562        C  0.32667238  0.61346912  0.21891305    -0.29720
H563        H  0.37013860  0.62710511  0.23795937     0.14480
H564        H  0.29376916  0.62428898  0.21245053     0.15060
C565        C  0.66414556  0.63740948  0.23156312    -0.14540
C566        C  0.67459594  0.61297140  0.21893728    -0.29720
H567        H  0.63114369  0.62685979  0.23796839     0.14480
H568        H  0.70753726  0.62365697  0.21247279     0.15060
C569        C  0.83708971  0.63724119  0.26881622    -0.14540
C570        C  0.82674056  0.61304209  0.28148743    -0.29720
H571        H  0.86998955  0.62651058  0.26239249     0.14480
H572        H  0.79388755  0.62389255  0.28796675     0.15060
C573        C  0.66449956  0.86284770  0.23153513    -0.14540
C574        C  0.67492686  0.88712232  0.21888053    -0.29720
H575        H  0.63157491  0.87355924  0.23795089     0.14480
H576        H  0.70779787  0.87628267  0.21240736     0.15060
C577        C  0.83734009  0.86262325  0.26880717    -0.14540
C578        C  0.82684260  0.88695830  0.28144683    -0.29720
H579        H  0.87033399  0.87325835  0.26240977     0.14480
H580        H  0.79391866  0.87616765  0.28790422     0.15060
C581        C  0.91779555  0.25019013  0.39209769    -0.11380
C582        C  0.95524349  0.25014459  0.38447312    -0.12940
C583        C  0.04628746  0.25006706  0.38445220    -0.11380
C584        C  0.08377903  0.25013459  0.39206014    -0.12940
C585        C  0.38810845  0.41342554  0.48159671    -0.14540
C586        C  0.36390163  0.42389360  0.46893351    -0.29720
H587        H  0.37734599  0.38050318  0.48800405     0.14480
H588        H  0.37482841  0.45674054  0.46246540     0.15060
C589        C  0.61363540  0.41341324  0.48165097    -0.14540
C590        C  0.63800207  0.42393705  0.46901901    -0.29720
H591        H  0.62430494  0.38045132  0.48805466     0.14480
H592        H  0.62716316  0.45681674  0.46255227     0.15060
C593        C  0.38814653  0.58634927  0.51886072    -0.14540
C594        C  0.36394386  0.57607237  0.53153745    -0.29720
H595        H  0.37744295  0.61923147  0.51242849     0.14480
H596        H  0.37478315  0.54324925  0.53802798     0.15060
C597        C  0.61349086  0.58633438  0.51886723    -0.14540
C598        C  0.63773629  0.57603342  0.53153397    -0.29720
H599        H  0.62415823  0.61923956  0.51243994     0.14480
H600        H  0.62693819  0.54318482  0.53801933     0.15060
C601        C  0.38797762  0.08709270  0.48161511    -0.14540
C602        C  0.36376511  0.07661472  0.46895450    -0.29720
H603        H  0.37721811  0.12001740  0.48802250     0.14480
H604        H  0.37468967  0.04376541  0.46248638     0.15060
C605        C  0.61339408  0.91425657  0.51888458    -0.14540
C606        C  0.63759891  0.92455019  0.53155896    -0.29720
H607        H  0.62409886  0.88137009  0.51245397     0.14480
H608        H  0.62676157  0.95737940  0.53804771     0.15060
C609        C  0.38803856  0.91415409  0.51885035    -0.14540
C610        C  0.36377320  0.92445009  0.53151539    -0.29720
H611        H  0.37738188  0.88124947  0.51242051     0.14480
H612        H  0.37456114  0.95729934  0.53800256     0.15060
C613        C  0.61348688  0.08719315  0.48166039    -0.14540
C614        C  0.63781312  0.07669213  0.46901964    -0.29720
H615        H  0.62417654  0.12014435  0.48806662     0.14480
H616        H  0.62695296  0.04382296  0.46255086     0.15060
C617        C  0.04624188  0.75026118  0.61594653    -0.11380
C618        C  0.08368716  0.75024830  0.60831688    -0.12940
C619        C  0.91774888  0.75026617  0.60829933    -0.11380
C620        C  0.95520178  0.75024896  0.61592218    -0.12940
C621        C  0.50004049  0.83321532  0.85832029    -0.11380
C622        C  0.49996441  0.79577441  0.86594731    -0.12940
C623        C  0.49991379  0.66731321  0.85830334    -0.11380
C624        C  0.49989628  0.70474458  0.86593501    -0.12940
C625        C  0.00059978  0.79580676  0.63446178    -0.11380
C626        C  0.00045951  0.83327637  0.64207652    -0.12940
C627        C  0.00054859  0.66733696  0.64210689    -0.11380
C628        C  0.00063510  0.70477530  0.63447906    -0.12940
C629        C  0.66355766  0.36301080  0.76879187    -0.14540
C630        C  0.67393162  0.38727738  0.78145155    -0.29720
H631        H  0.63064026  0.37370433  0.76236943     0.14480
H632        H  0.70678106  0.37643571  0.78793375     0.15060
C633        C  0.83660497  0.36302752  0.73157619    -0.14540
C634        C  0.82625111  0.38726248  0.71891020    -0.29720
H635        H  0.86950575  0.37374406  0.73800238     0.14480
H636        H  0.79341468  0.37640306  0.71242486     0.15060
C637        C  0.67398113  0.11335868  0.78146976    -0.14540
C638        C  0.66361881  0.13758914  0.76880372    -0.29720
H639        H  0.70680274  0.12424420  0.78795771     0.14480
H640        H  0.63072326  0.12685639  0.76237728     0.15060
C641        C  0.83667792  0.13761855  0.73158458    -0.14540
C642        C  0.82632326  0.11337310  0.71891992    -0.29720
H643        H  0.86958474  0.12691073  0.73800966     0.14480
H644        H  0.79348650  0.12423049  0.71243458     0.15060
C645        C  0.32624626  0.38709210  0.78145452    -0.14540
C646        C  0.33668263  0.36283084  0.76879888    -0.29720
H647        H  0.29339483  0.37621709  0.78793090     0.14480
H648        H  0.36960322  0.37355136  0.76238211     0.15060
C649        C  0.16369182  0.36279758  0.73158757    -0.14540
C650        C  0.17408825  0.38704040  0.71892688    -0.29720
H651        H  0.13077613  0.37351063  0.73800778     0.14480
H652        H  0.20693729  0.37617658  0.71244766     0.15060
C653        C  0.16372716  0.13738025  0.73160081    -0.14540
C654        C  0.17416372  0.11306096  0.71895639    -0.29720
H655        H  0.13078632  0.12671402  0.73801656     0.14480
H656        H  0.20703256  0.12388286  0.71247990     0.15060
C657        C  0.33672235  0.13735826  0.76876880    -0.14540
C658        C  0.32626037  0.11299137  0.78140410    -0.29720
H659        H  0.36967632  0.12671255  0.76235551     0.14480
H660        H  0.29337462  0.12378780  0.78787716     0.15060
loop_ 
_geom_bond_atom_site_label_1 
_geom_bond_atom_site_label_2 
_geom_bond_distance 
_geom_bond_site_symmetry_2 
_ccdc_geom_bond_type 
O1           Cu9   2.004       .  S
O1           C11   1.277       .  A
O2           Cu9   2.014       .  S
O2           C12   1.278       .  A
O3           Cu9   2.004       .  S
O3           C13   1.277       .  A
O4           Cu9   2.014       .  S
O4           C14   1.278       .  A
O5          Cu10   2.004       .  S
O5           C14   1.277       .  A
O6          Cu10   2.013       .  S
O6           C13   1.278       .  A
O7          Cu10   2.004       .  S
O7           C12   1.277       .  A
O8          Cu10   2.014       .  S
O8           C11   1.278       .  A
Cu9         Cu10   2.376       .  S
C11         C657   1.472       .  S
C12         C649   1.472       .  S
C13         C646   1.472       .  S
C14         C653   1.472       .  S
O15         Cu23   2.004       .  S
O15          C25   1.277       .  A
O16         Cu23   2.014       .  S
O16          C26   1.278       .  A
O17         Cu23   2.005       .  S
O17          C27   1.277       .  A
O18         Cu23   2.014       .  S
O18          C28   1.278       .  A
O19         Cu24   2.005       .  S
O19          C28   1.277       .  A
O20         Cu24   2.014       .  S
O20          C27   1.278       .  A
O21         Cu24   2.005       .  S
O21          C26   1.277       .  A
O22         Cu24   2.014       .  S
O22          C25   1.278       .  A
Cu23        Cu24   2.376       .  S
C25         C633   1.472       .  S
C26         C638   1.472       .  S
C27         C641   1.472       .  S
C28         C629   1.472       .  S
N29          N30   1.319       .  A
N29          C33   1.350       .  A
N29         Cu37   2.080       .  S
N30          C31   1.338       .  A
N30         Cu36   2.051   1_655  S
C31          C32   1.384       .  A
C31          H34   1.080       .  S
C32         C634   1.483       .  S
C32          C33   1.389       .  A
C33          H35   1.082       .  S
Cu36         N39   2.051       .  S
Cu37         N47   2.084       .  S
Cu38         N40   2.079       .  S
Cu38         N46   2.083       .  S
N39          N40   1.319       .  A
N39          C43   1.338       .  A
N40          C41   1.350       .  A
C41          C42   1.389       .  A
C41          H44   1.082       .  S
C42         C650   1.483       .  S
C42          C43   1.384       .  A
C43          H45   1.080       .  S
N46          N47   1.326   1_455  A
N46          C50   1.346       .  A
N47          C48   1.346       .  A
C48          C49   1.379   1_655  A
C48          H51   1.082       .  S
C49          C50   1.379       .  A
C49         C627   1.437       .  S
C50          H52   1.082       .  S
N53          N54   1.319       .  A
N53          C57   1.350       .  A
N53         Cu61   2.080   1_545  S
N54          C55   1.338       .  A
N54         Cu60   2.051   1_645  S
C55          C56   1.384       .  A
C55          H58   1.080       .  S
C56         C642   1.483       .  S
C56          C57   1.389       .  A
C57          H59   1.082       .  S
Cu60         N63   2.051   1_565  S
Cu61         N71   2.084       .  S
Cu62         N64   2.079   1_565  S
Cu62         N70   2.082       .  S
N63          N64   1.319       .  A
N63          C67   1.338       .  A
N64          C65   1.350       .  A
C65          C66   1.389       .  A
C65          H68   1.082       .  S
C66         C654   1.483       .  S
C66          C67   1.384       .  A
C67          H69   1.080       .  S
N70          N71   1.326   1_455  A
N70          C74   1.346       .  A
N71          C72   1.346       .  A
C72          C73   1.379   1_655  A
C72          H75   1.082       .  S
C73          C74   1.379       .  A
C73         C626   1.437       .  S
C74          H76   1.082       .  S
N77          N78   1.319       .  A
N77          C81   1.350       .  A
N77         Cu85   2.079       .  S
N78          C79   1.338       .  A
N78         Cu84   2.051       .  S
C79          C80   1.384       .  A
C79          H82   1.080       .  S
C80         C645   1.483       .  S
C80          C81   1.389       .  A
C81          H83   1.082       .  S
Cu84         N87   2.051       .  S
Cu85         N95   2.083       .  S
Cu86         N88   2.080       .  S
Cu86         N94   2.083       .  S
N87          N88   1.319       .  A
N87          C91   1.338       .  A
N88          C89   1.350       .  A
C89          C90   1.389       .  A
C89          H92   1.082       .  S
C90         C630   1.483       .  S
C90          C91   1.384       .  A
C91          H93   1.080       .  S
N94          N95   1.326       .  A
N94          C98   1.346       .  A
N95          C96   1.346       .  A
C96          C97   1.379       .  A
C96          H99   1.082       .  S
C97          C98   1.379       .  A
C97         C623   1.437       .  S
C98         H100   1.082       .  S
N101        N102   1.319       .  A
N101        C105   1.350       .  A
N101       Cu109   2.079   1_545  S
N102        C103   1.338       .  A
N102       Cu108   2.051   1_545  S
C103        C104   1.384       .  A
C103        H106   1.080       .  S
C104        C658   1.483       .  S
C104        C105   1.389       .  A
C105        H107   1.082       .  S
Cu108       N111   2.051   1_565  S
Cu109       N119   2.083       .  S
Cu110       N112   2.080   1_565  S
Cu110       N118   2.084       .  S
N111        N112   1.319       .  A
N111        C115   1.338       .  A
N112        C113   1.350       .  A
C113        C114   1.389       .  A
C113        H116   1.082       .  S
C114        C637   1.483       .  S
C114        C115   1.384       .  A
C115        H117   1.080       .  S
N118        N119   1.326       .  A
N118        C122   1.346       .  A
N119        C120   1.346       .  A
C120        C121   1.379       .  A
C120        H123   1.082       .  S
C121        C122   1.379       .  A
C121        C621   1.437       .  S
C122        H124   1.082       .  S
C125        C617   1.467       .  S
C125        C620   1.467   1_455  S
C125        C625   1.467       .  S
C125        C628   1.467       .  S
O126       Cu134   2.013   1_545  S
O126        C136   1.278       .  A
O127       Cu134   2.004       .  S
O127        C137   1.277       .  A
O128       Cu134   2.013   1_545  S
O128        C138   1.278       .  A
O129       Cu134   2.004       .  S
O129        C139   1.277       .  A
O130       Cu135   2.014   1_565  S
O130        C139   1.278       .  A
O131       Cu135   2.004       .  S
O131        C138   1.277       .  A
O132       Cu135   2.014   1_565  S
O132        C137   1.278       .  A
O133       Cu135   2.005       .  S
O133        C136   1.277       .  A
Cu134      Cu135   2.376   1_565  S
C136        C613   1.472       .  S
C137        C609   1.472       .  S
C138        C601   1.472       .  S
C139        C605   1.472       .  S
O140       Cu148   2.014       .  S
O140        C150   1.278       .  A
O141       Cu148   2.004       .  S
O141        C151   1.277       .  A
O142       Cu148   2.014       .  S
O142        C152   1.278       .  A
O143       Cu148   2.005       .  S
O143        C153   1.277       .  A
O144       Cu149   2.013       .  S
O144        C153   1.278       .  A
O145       Cu149   2.004       .  S
O145        C152   1.277       .  A
O146       Cu149   2.014       .  S
O146        C151   1.278       .  A
O147       Cu149   2.004       .  S
O147        C150   1.277       .  A
Cu148      Cu149   2.376       .  S
C150        C593   1.472       .  S
C151        C589   1.472       .  S
C152        C597   1.472       .  S
C153        C585   1.472       .  S
N154        N155   1.319       .  A
N154        C158   1.350       .  A
N154       Cu162   2.079       .  S
N155        C156   1.338       .  A
N155       Cu161   2.051       .  S
C156        C157   1.384       .  A
C156        H159   1.080       .  S
C157        C586   1.483       .  S
C157        C158   1.389       .  A
C158        H160   1.082       .  S
Cu161       N164   2.051       .  S
Cu162       N172   2.083       .  S
Cu163       N165   2.079       .  S
Cu163       N171   2.083       .  S
N164        N165   1.319       .  A
N164        C168   1.338       .  A
N165        C166   1.350       .  A
C166        C167   1.389       .  A
C166        H169   1.082       .  S
C167        C602   1.483       .  S
C167        C168   1.384       .  A
C168        H170   1.080       .  S
N171        N172   1.326       .  A
N171        C175   1.346       .  A
N172        C173   1.346       .  A
C173        C174   1.379       .  A
C173        H176   1.082       .  S
C174        C175   1.379       .  A
C174        C584   1.437       .  S
C175        H177   1.082       .  S
N178        N179   1.319       .  A
N178        C182   1.350       .  A
N178       Cu186   2.079       .  S
N179        C180   1.338       .  A
N179       Cu185   2.051       .  S
C180        C181   1.384       .  A
C180        H183   1.080       .  S
C181        C590   1.483       .  S
C181        C182   1.389       .  A
C182        H184   1.082       .  S
Cu185       N188   2.051       .  S
Cu186       N196   2.083       .  S
Cu187       N189   2.079       .  S
Cu187       N195   2.083       .  S
N188        N189   1.319       .  A
N188        C192   1.338       .  A
N189        C190   1.350       .  A
C190        C191   1.389       .  A
C190        H193   1.082       .  S
C191        C614   1.483       .  S
C191        C192   1.384       .  A
C192        H194   1.080       .  S
N195        N196   1.326       .  A
N195        C199   1.346       .  A
N196        C197   1.346       .  A
C197        C198   1.379       .  A
C197        H200   1.082       .  S
C198        C199   1.379       .  A
C198        C581   1.437       .  S
C199        H201   1.082       .  S
N202        N203   1.319       .  A
N202        C206   1.350       .  A
N202       Cu210   2.080       .  S
N203        C204   1.338       .  A
N203       Cu209   2.051       .  S
C204        C205   1.384       .  A
C204        H207   1.080       .  S
C205        C594   1.483       .  S
C205        C206   1.389       .  A
C206        H208   1.082       .  S
Cu209       N212   2.051       .  S
Cu210       N220   2.084       .  S
Cu211       N213   2.080       .  S
Cu211       N219   2.083       .  S
N212        N213   1.319       .  A
N212        C216   1.338       .  A
N213        C214   1.350       .  A
C214        C215   1.389       .  A
C214        H217   1.082       .  S
C215        C610   1.483       .  S
C215        C216   1.384       .  A
C216        H218   1.080       .  S
N219        N220   1.327       .  A
N219        C223   1.346       .  A
N220        C221   1.346       .  A
C221        C222   1.379       .  A
C221        H224   1.082       .  S
C222        C223   1.379       .  A
C222        C618   1.437       .  S
C223        H225   1.082       .  S
N226        N227   1.319       .  A
N226        C230   1.350       .  A
N226       Cu234   2.079       .  S
N227        C228   1.338       .  A
N227       Cu233   2.051       .  S
C228        C229   1.384       .  A
C228        H231   1.080       .  S
C229        C606   1.483       .  S
C229        C230   1.389       .  A
C230        H232   1.082       .  S
Cu233       N236   2.051       .  S
Cu234       N244   2.083       .  S
Cu235       N237   2.079       .  S
Cu235       N243   2.083       .  S
N236        N237   1.319       .  A
N236        C240   1.338       .  A
N237        C238   1.350       .  A
C238        C239   1.389       .  A
C238        H241   1.082       .  S
C239        C598   1.483       .  S
C239        C240   1.384       .  A
C240        H242   1.080       .  S
N243        N244   1.326       .  A
N243        C247   1.346       .  A
N244        C245   1.346       .  A
C245        C246   1.379       .  A
C245        H248   1.082       .  S
C246        C247   1.379       .  A
C246        C619   1.437       .  S
C247        H249   1.082       .  S
O250       Cu258   2.004       .  S
O250        C260   1.277       .  A
O251       Cu258   2.014       .  S
O251        C261   1.278       .  A
O252       Cu258   2.005       .  S
O252        C262   1.277       .  A
O253       Cu258   2.014       .  S
O253        C263   1.278       .  A
O254       Cu259   2.004       .  S
O254        C263   1.277       .  A
O255       Cu259   2.013       .  S
O255        C262   1.278       .  A
O256       Cu259   2.004       .  S
O256        C261   1.277       .  A
O257       Cu259   2.014       .  S
O257        C260   1.278       .  A
Cu258      Cu259   2.376       .  S
C260        C569   1.472       .  S
C261        C573   1.472       .  S
C262        C577   1.472       .  S
C263        C565   1.472       .  S
O264       Cu272   2.004       .  S
O264        C274   1.277       .  A
O265       Cu272   2.013       .  S
O265        C275   1.278       .  A
O266       Cu272   2.004       .  S
O266        C276   1.277       .  A
O267       Cu272   2.014       .  S
O267        C277   1.278       .  A
O268       Cu273   2.004       .  S
O268        C277   1.277       .  A
O269       Cu273   2.013       .  S
O269        C276   1.278       .  A
O270       Cu273   2.004       .  S
O270        C275   1.277       .  A
O271       Cu273   2.014       .  S
O271        C274   1.278       .  A
Cu272      Cu273   2.376       .  S
C274        C553   1.472       .  S
C275        C549   1.472       .  S
C276        C561   1.472       .  S
C277        C557   1.472       .  S
N278        N279   1.319       .  A
N278        C282   1.350       .  A
N278       Cu286   2.079   1_565  S
N279        C280   1.338       .  A
N279       Cu285   2.051   1_665  S
C280        C281   1.384       .  A
C280        H283   1.080       .  S
C281        C578   1.483       .  S
C281        C282   1.389       .  A
C282        H284   1.082       .  S
Cu285       N288   2.051   1_545  S
Cu286       N296   2.083       .  S
Cu287       N289   2.079   1_545  S
Cu287       N295   2.083       .  S
N288        N289   1.319       .  A
N288        C292   1.338       .  A
N289        C290   1.350       .  A
C290        C291   1.389       .  A
C290        H293   1.082       .  S
C291        C558   1.483       .  S
C291        C292   1.384       .  A
C292        H294   1.080       .  S
N295        N296   1.326   1_455  A
N295        C299   1.346       .  A
N296        C297   1.346       .  A
C297        C298   1.379   1_655  A
C297        H300   1.082       .  S
C298        C299   1.379       .  A
C298        C547   1.437       .  S
C299        H301   1.082       .  S
N302        N303   1.319       .  A
N302        C306   1.350       .  A
N302       Cu310   2.079       .  S
N303        C304   1.338       .  A
N303       Cu309   2.051       .  S
C304        C305   1.384       .  A
C304        H307   1.080       .  S
C305        C562   1.483       .  S
C305        C306   1.389       .  A
C306        H308   1.082       .  S
Cu309       N312   2.051       .  S
Cu310       N320   2.083       .  S
Cu311       N313   2.079       .  S
Cu311       N319   2.083       .  S
N312        N313   1.319       .  A
N312        C316   1.338       .  A
N313        C314   1.350       .  A
C314        C315   1.389       .  A
C314        H317   1.082       .  S
C315        C566   1.483       .  S
C315        C316   1.384       .  A
C316        H318   1.080       .  S
N319        N320   1.327       .  A
N319        C323   1.346       .  A
N320        C321   1.346       .  A
C321        C322   1.379       .  A
C321        H324   1.082       .  S
C322        C323   1.379       .  A
C322        C546   1.437       .  S
C323        H325   1.082       .  S
N326        N327   1.319       .  A
N326        C330   1.350       .  A
N326       Cu334   2.079       .  S
N327        C328   1.338       .  A
N327       Cu333   2.051   1_655  S
C328        C329   1.384       .  A
C328        H331   1.080       .  S
C329        C570   1.483       .  S
C329        C330   1.389       .  A
C330        H332   1.082       .  S
Cu333       N336   2.051       .  S
Cu334       N344   2.083       .  S
Cu335       N337   2.080       .  S
Cu335       N343   2.083       .  S
N336        N337   1.319       .  A
N336        C340   1.338       .  A
N337        C338   1.350       .  A
C338        C339   1.390       .  A
C338        H341   1.082       .  S
C339        C550   1.483       .  S
C339        C340   1.384       .  A
C340        H342   1.080       .  S
N343        N344   1.327   1_455  A
N343        C347   1.346       .  A
N344        C345   1.346       .  A
C345        C346   1.379   1_655  A
C345        H348   1.082       .  S
C346        C347   1.379       .  A
C346        C543   1.437       .  S
C347        H349   1.082       .  S
N350        N351   1.319       .  A
N350        C354   1.350       .  A
N350       Cu358   2.079   1_565  S
N351        C352   1.338       .  A
N351       Cu357   2.051   1_565  S
C352        C353   1.384       .  A
C352        H355   1.080       .  S
C353        C554   1.483       .  S
C353        C354   1.389       .  A
C354        H356   1.082       .  S
Cu357       N360   2.051   1_545  S
Cu358       N368   2.083       .  S
Cu359       N361   2.080   1_545  S
Cu359       N367   2.084       .  S
N360        N361   1.319       .  A
N360        C364   1.338       .  A
N361        C362   1.350       .  A
C362        C363   1.389       .  A
C362        H365   1.082       .  S
C363        C574   1.483       .  S
C363        C364   1.384       .  A
C364        H366   1.080       .  S
N367        N368   1.327       .  A
N367        C371   1.346       .  A
N368        C369   1.346       .  A
C369        C370   1.378       .  A
C369        H372   1.082       .  S
C370        C371   1.379       .  A
C370        C541   1.437       .  S
C371        H373   1.082       .  S
C374        C544   1.467       .  S
C374        C548   1.467       .  S
C374        C582   1.467   1_455  S
C374        C583   1.467       .  S
O375       Cu383   2.013   1_455  S
O375        C385   1.278       .  A
O376       Cu383   2.004       .  S
O376        C386   1.277   1_554  A
O377       Cu383   2.013       .  S
O377        C387   1.278       .  A
O378       Cu383   2.004   1_455  S
O378        C388   1.277   1_554  A
O379       Cu384   2.014       .  S
O379        C388   1.278       .  A
O380       Cu384   2.004   1_654  S
O380        C387   1.277       .  A
O381       Cu384   2.014   1_655  S
O381        C386   1.278       .  A
O382       Cu384   2.005   1_554  S
O382        C385   1.277       .  A
Cu383      Cu384   2.376   1_654  S
C385        C525   1.472       .  S
C386        C534   1.472       .  S
C387        C538   1.472       .  S
C388        C529   1.472       .  S
O389       Cu397   2.014   1_665  S
O389        C399   1.278       .  A
O390       Cu397   2.005   1_554  S
O390        C400   1.277       .  A
O391       Cu397   2.014   1_565  S
O391        C401   1.278       .  A
O392       Cu397   2.005   1_654  S
O392        C402   1.277       .  A
O393       Cu398   2.013   1_545  S
O393        C402   1.278       .  A
O394       Cu398   2.004   1_455  S
O394        C401   1.277   1_554  A
O395       Cu398   2.013   1_445  S
O395        C400   1.278       .  A
O396       Cu398   2.004       .  S
O396        C399   1.277   1_554  A
Cu397      Cu398   2.376   1_446  S
C399        C517   1.472       .  S
C400        C513   1.472       .  S
C401        C521   1.472       .  S
C402        C509   1.472       .  S
N403        N404   1.319       .  A
N403        C407   1.350       .  A
N403       Cu411   2.079       .  S
N404        C405   1.338       .  A
N404       Cu410   2.051       .  S
C405        C406   1.384       .  A
C405        H408   1.080       .  S
C406        C510   1.483       .  S
C406        C407   1.389       .  A
C407        H409   1.082       .  S
Cu410       N413   2.051       .  S
Cu411       N421   2.083       .  S
Cu412       N414   2.079       .  S
Cu412       N420   2.082       .  S
N413        N414   1.319       .  A
N413        C417   1.338       .  A
N414        C415   1.350       .  A
C415        C416   1.389       .  A
C415        H418   1.082       .  S
C416        C537   1.482       .  S
C416        C417   1.384       .  A
C417        H419   1.080       .  S
N420        N421   1.326       .  A
N420        C424   1.346       .  A
N421        C422   1.346       .  A
C422        C423   1.379       .  A
C422        H425   1.082       .  S
C423        C424   1.379       .  A
C423        C507   1.437       .  S
C424        H426   1.082       .  S
N427        N428   1.319       .  A
N427        C431   1.350       .  A
N427       Cu435   2.080       .  S
N428        C429   1.338       .  A
N428       Cu434   2.051       .  S
C429        C430   1.384       .  A
C429        H432   1.080       .  S
C430        C530   1.483       .  S
C430        C431   1.389       .  A
C431        H433   1.082       .  S
Cu434       N437   2.051       .  S
Cu435       N445   2.083       .  S
Cu436       N438   2.079       .  S
Cu436       N444   2.083       .  S
N437        N438   1.319       .  A
N437        C441   1.338       .  A
N438        C439   1.350       .  A
C439        C440   1.389       .  A
C439        H442   1.082       .  S
C440        C522   1.483       .  S
C440        C441   1.384       .  A
C441        H443   1.080       .  S
N444        N445   1.326       .  A
N444        C448   1.346       .  A
N445        C446   1.346       .  A
C446        C447   1.379       .  A
C446        H449   1.082       .  S
C447        C448   1.379       .  A
C447        C506   1.437       .  S
C448        H450   1.082       .  S
N451        N452   1.319       .  A
N451        C455   1.350       .  A
N451       Cu459   2.079       .  S
N452        C453   1.338       .  A
N452       Cu458   2.051       .  S
C453        C454   1.384       .  A
C453        H456   1.080       .  S
C454        C514   1.483       .  S
C454        C455   1.389       .  A
C455        H457   1.082       .  S
Cu458       N461   2.051       .  S
Cu459       N469   2.083       .  S
Cu460       N462   2.080       .  S
Cu460       N468   2.083       .  S
N461        N462   1.319       .  A
N461        C465   1.338       .  A
N462        C463   1.350       .  A
C463        C464   1.389       .  A
C463        H466   1.082       .  S
C464        C526   1.483       .  S
C464        C465   1.384       .  A
C465        H467   1.080       .  S
N468        N469   1.326       .  A
N468        C472   1.346       .  A
N469        C470   1.346       .  A
C470        C471   1.379       .  A
C470        H473   1.082       .  S
C471        C472   1.379       .  A
C471        C503   1.437       .  S
C472        H474   1.082       .  S
N475        N476   1.319       .  A
N475        C479   1.350       .  A
N475       Cu483   2.080       .  S
N476        C477   1.338       .  A
N476       Cu482   2.051       .  S
C477        C478   1.384       .  A
C477        H480   1.080       .  S
C478        C533   1.483       .  S
C478        C479   1.389       .  A
C479        H481   1.082       .  S
Cu482       N485   2.051       .  S
Cu483       N493   2.083       .  S
Cu484       N486   2.080       .  S
Cu484       N492   2.083       .  S
N485        N486   1.319       .  A
N485        C489   1.338       .  A
N486        C487   1.350       .  A
C487        C488   1.389       .  A
C487        H490   1.082       .  S
C488        C518   1.483       .  S
C488        C489   1.384       .  A
C489        H491   1.080       .  S
N492        N493   1.327       .  A
N492        C496   1.346       .  A
N493        C494   1.346       .  A
C494        C495   1.379       .  A
C494        H497   1.082       .  S
C495        C496   1.379       .  A
C495        C501   1.437       .  S
C496        H498   1.082       .  S
C499        C504   1.467       .  S
C499        C508   1.467       .  S
C499        C542   1.467       .  S
C499        C545   1.467       .  S
C500        C502   1.467       .  S
C500        C505   1.467       .  S
C500        C622   1.467       .  S
C500        C624   1.467       .  S
C501        C502   1.207       .  T
C503        C504   1.207       .  T
C505        C506   1.207       .  T
C507        C508   1.207       .  T
C509        C510   1.347       .  D
C509        H511   1.084       .  S
C510        H512   1.086       .  S
C513        C514   1.347       .  D
C513        H515   1.084       .  S
C514        H516   1.086       .  S
C517        C518   1.347       .  D
C517        H519   1.084       .  S
C518        H520   1.086       .  S
C521        C522   1.347       .  D
C521        H523   1.084       .  S
C522        H524   1.086       .  S
C525        C526   1.347       .  D
C525        H527   1.084       .  S
C526        H528   1.086       .  S
C529        C530   1.347       .  D
C529        H531   1.084       .  S
C530        H532   1.086       .  S
C533        C534   1.347       .  D
C533        H535   1.086       .  S
C534        H536   1.084       .  S
C537        C538   1.347       .  D
C537        H539   1.086       .  S
C538        H540   1.084       .  S
C541        C542   1.207       .  T
C543        C544   1.207       .  T
C545        C546   1.207       .  T
C547        C548   1.207       .  T
C549        C550   1.347       .  D
C549        H551   1.084       .  S
C550        H552   1.086       .  S
C553        C554   1.347       .  D
C553        H555   1.084       .  S
C554        H556   1.086       .  S
C557        C558   1.347       .  D
C557        H559   1.084       .  S
C558        H560   1.086       .  S
C561        C562   1.347       .  D
C561        H563   1.084       .  S
C562        H564   1.086       .  S
C565        C566   1.347       .  D
C565        H567   1.084       .  S
C566        H568   1.086       .  S
C569        C570   1.347       .  D
C569        H571   1.084       .  S
C570        H572   1.086       .  S
C573        C574   1.347       .  D
C573        H575   1.084       .  S
C574        H576   1.086       .  S
C577        C578   1.347       .  D
C577        H579   1.084       .  S
C578        H580   1.086       .  S
C581        C582   1.207       .  T
C583        C584   1.207       .  T
C585        C586   1.347       .  D
C585        H587   1.084       .  S
C586        H588   1.086       .  S
C589        C590   1.347       .  D
C589        H591   1.084       .  S
C590        H592   1.086       .  S
C593        C594   1.347       .  D
C593        H595   1.084       .  S
C594        H596   1.086       .  S
C597        C598   1.347       .  D
C597        H599   1.084       .  S
C598        H600   1.086       .  S
C601        C602   1.347       .  D
C601        H603   1.084       .  S
C602        H604   1.086       .  S
C605        C606   1.347       .  D
C605        H607   1.084       .  S
C606        H608   1.086       .  S
C609        C610   1.347       .  D
C609        H611   1.084       .  S
C610        H612   1.086       .  S
C613        C614   1.347       .  D
C613        H615   1.084       .  S
C614        H616   1.086       .  S
C617        C618   1.207       .  T
C619        C620   1.207       .  T
C621        C622   1.207       .  T
C623        C624   1.207       .  T
C625        C626   1.207       .  T
C627        C628   1.207       .  T
C629        C630   1.347       .  D
C629        H631   1.084       .  S
C630        H632   1.086       .  S
C633        C634   1.347       .  D
C633        H635   1.084       .  S
C634        H636   1.086       .  S
C637        C638   1.347       .  D
C637        H639   1.086       .  S
C638        H640   1.084       .  S
C641        C642   1.347       .  D
C641        H643   1.084       .  S
C642        H644   1.086       .  S
C645        C646   1.347       .  D
C645        H647   1.086       .  S
C646        H648   1.084       .  S
C649        C650   1.347       .  D
C649        H651   1.084       .  S
C650        H652   1.086       .  S
C653        C654   1.347       .  D
C653        H655   1.084       .  S
C654        H656   1.086       .  S
C657        C658   1.347       .  D
C657        H659   1.084       .  S
C658        H660   1.086       .  S
