geometry optimzed in LAMMPS
_audit_creation_date              2020-12-01 
_audit_creation_method            'lammps2cif' 
_symmetry_space_group_name_H-M    'P1' 
_symmetry_Int_Tables_number       1 
_symmetry_cell_setting            triclinic 
loop_ 
_symmetry_equiv_pos_as_xyz 
  x,y,z 
_cell_length_a                    36.47104218 
_cell_length_b                    35.19234838967629 
_cell_length_c                    33.141501141415354 
_cell_angle_alpha                 92.42952898260691 
_cell_angle_beta                  96.31138654589763 
_cell_angle_gamma                 122.1334604379396 
loop_ 
_atom_site_label 
_atom_site_type_symbol 
_atom_site_fract_x 
_atom_site_fract_y 
_atom_site_fract_z 
_atom_site_charge 
C1          C  0.35852825  0.13265927  0.95734444     0.03000
C2          C  0.38201892  0.17966504  0.96231484    -0.13100
C3          C  0.36187814  0.20237739  0.97229580     0.00500
C4          C  0.31832953  0.17770134  0.97896154    -0.11700
C5          C  0.29309029  0.13014671  0.97164202     0.03000
C6          C  0.31380331  0.10767070  0.96099326    -0.11100
H7          H  0.41600447  0.19858979  0.95762842     0.08600
H8          H  0.30366175  0.19587685  0.98821772     0.06100
H9          H  0.29528810  0.07123984  0.95411834     0.06000
C10         C  0.35919959  0.14245762  0.24101790     0.03000
C11         C  0.37799560  0.18714232  0.23094053    -0.13100
C12         C  0.35379253  0.20803465  0.22930761     0.00500
C13         C  0.30988518  0.18288067  0.23567284    -0.11700
C14         C  0.29073970  0.13835238  0.24480451     0.03000
C15         C  0.31651594  0.12008523  0.25078344    -0.11100
H16         H  0.41057628  0.20512607  0.22289177     0.08600
H17         H  0.28983986  0.19702618  0.23099844     0.06100
H18         H  0.30138791  0.08614518  0.25937600     0.06000
C19         C  0.13523703  0.35324081  0.33808842     0.03000
C20         C  0.18077103  0.37198293  0.34455514    -0.13100
C21         C  0.19734065  0.34377240  0.34638883     0.00500
C22         C  0.16759662  0.29660247  0.34111359    -0.11700
C23         C  0.12214869  0.27783638  0.33481869     0.03000
C24         C  0.10626366  0.30622138  0.33276315    -0.11100
H25         H  0.20313246  0.40832957  0.35074050     0.08600
H26         H  0.17974696  0.27448656  0.34389821     0.06100
H27         H  0.07131544  0.29179281  0.33063275     0.06000
C28         C  0.13502332  0.35600566  0.08642337     0.03000
C29         C  0.10731614  0.30861699  0.08068183    -0.13100
C30         C  0.12471245  0.28160406  0.07859095     0.00500
C31         C  0.16944588  0.30202519  0.07583119    -0.11700
C32         C  0.19764039  0.34937026  0.08042034     0.03000
C33         C  0.17997819  0.37584927  0.08650754    -0.11100
H34         H  0.07257020  0.29266584  0.08123245     0.08600
H35         H  0.18228237  0.28078785  0.07214841     0.06100
H36         H  0.20171579  0.41219978  0.09331232     0.06000
O37         O  0.08050306  0.99605974  0.45735296    -0.80300
O38         O  0.43446644  0.02235759  0.38847940    -0.80300
O39         O  0.04873764  0.08772469  0.39248090    -0.80300
O40         O  0.44863440  0.47032756  0.49964724    -0.80200
O41         O  0.99623442  0.05741789  0.33955529    -0.80400
O42         O  0.01816866  0.49744569  0.49678367    -0.80300
O43         O  0.47341342  0.03928436  0.45029371    -0.80300
O44         O  0.08429867  0.05707408  0.44573512    -0.80300
C45         C  0.10367119  0.03835968  0.45835301     1.09400
C46         C  0.44871025  0.04454292  0.42402147     1.09300
C47         C  0.02699495  0.09211088  0.36301836     1.09500
C48         C  0.48740426  0.48821781  0.01811925     1.09300
O49         O  0.50879863  0.41725585  0.47445200    -0.80300
O50         O  0.47893698  0.96733737  0.31770636    -0.80300
O51         O  0.07685441  0.49369518  0.37923589    -0.80300
O52         O  0.40292893  0.45043750  0.42306395    -0.80200
O53         O  0.41086936  0.43142514  0.36288608    -0.80300
O54         O  0.01955711  0.43053077  0.39430979    -0.80300
O55         O  0.44950537  0.41272585  0.44400935    -0.80200
O56         O  0.04474253  0.02951446  0.32567424    -0.80300
Co57       Co  0.01504407  0.46292527  0.44180617     1.51500
Co58       Co  0.45735115  0.99351615  0.35460568     1.51700
Co59       Co  0.06095058  0.04044832  0.38727012     1.51600
Co60       Co  0.46615780  0.47928614  0.44713923     1.51500
O61         O  0.50089513  0.49678361  0.40101590    -1.42200
C62         C  0.46771243  0.39405948  0.46280515     1.09400
C63         C  0.51283777  0.49482280  0.30330157     1.09500
C64         C  0.05497019  0.45079990  0.37922730     1.09400
C65         C  0.38592783  0.42808199  0.38803607     1.09400
O66         O  0.07943345  0.99060952  0.20073113    -0.80300
O67         O  0.45748835  0.04680191  0.17891803    -0.80300
O68         O  0.04915123  0.09146508  0.15657323    -0.80300
O69         O  0.50093502  0.51647177  0.24038896    -0.80200
O70         O  0.99529109  0.06888065  0.10848098    -0.80400
O71         O  0.00896303  0.45841786  0.23971026    -0.80300
O72         O  0.41649626  0.99494794  0.21720568    -0.80300
O73         O  0.09105932  0.05863208  0.19861610    -0.80300
C74         C  0.10349083  0.03323177  0.21074909     1.09400
C75         C  0.43004146  0.03311787  0.20463169     1.09300
C76         C  0.03083806  0.10114519  0.12849661     1.09500
C77         C  0.51018884  0.49130889  0.25906799     1.09300
O78         O  0.45212543  0.40372770  0.16210827    -0.80300
O79         O  0.46437105  0.97801846  0.08234373    -0.80300
O80         O  0.08275728  0.50483401  0.12627454    -0.80300
O81         O  0.40473703  0.45030341  0.14333376    -0.80200
O82         O  0.40834811  0.50133673  0.10497605    -0.80300
O83         O  0.02198648  0.43950862  0.12443657    -0.80300
O84         O  0.43053519  0.42479179  0.21109893    -0.80200
O85         O  0.03399277  0.03156219  0.08148809    -0.80300
Co86       Co  0.01435685  0.44959261  0.18017881     1.51500
Co87       Co  0.46151826  0.00910762  0.13114449     1.51700
Co88       Co  0.06120406  0.04501641  0.14200088     1.51600
Co89       Co  0.45636290  0.48699061  0.19130774     1.51500
O90         O  0.50523827  0.49794326  0.16133637    -1.42200
C91         C  0.42877087  0.39288713  0.18975413     1.09400
C92         C  0.49628245  0.49937896  0.06299430     1.09500
C93         C  0.06083426  0.46216334  0.11795421     1.09400
C94         C  0.38590459  0.46250228  0.11637166     1.09400
C95         C  0.09930138  0.23475476  0.08960599    -0.00300
C96         C  0.11728343  0.22529808  0.12429368    -0.12100
C97         C  0.09498553  0.18309697  0.13844528     0.02000
C98         C  0.05323539  0.14824851  0.11731606     0.01800
C99         C  0.03450096  0.15823547  0.08321727    -0.12100
C100        C  0.05687575  0.20117931  0.06959126     0.01800
H101        H  0.14883387  0.25161364  0.14112667     0.14800
H102        H  0.00248366  0.13241505  0.06688636     0.14800
C103        C  0.03583428  0.20981711  0.03494818     0.36500
C104        C  0.11637406  0.17739515  0.17495970     0.36400
N105        N  0.01885751  0.21692610  0.00739574    -0.43900
N106        N  0.13365709  0.17325784  0.20432249    -0.43900
C107        C  0.24611048  0.37264226  0.08266552    -0.00300
C108        C  0.26829305  0.41315411  0.06497290    -0.12100
C109        C  0.31376615  0.44273439  0.07427927     0.02000
C110        C  0.33872210  0.43062068  0.09978725    -0.00400
C111        C  0.31695524  0.38785081  0.11377040    -0.12100
C112        C  0.27127514  0.35946370  0.10647492     0.01800
H113        H  0.24958526  0.42336498  0.04588704     0.14800
H114        H  0.33542754  0.37754983  0.13308220     0.14800
C115        C  0.25190366  0.31926187  0.12694015     0.36500
C116        C  0.33254947  0.48660103  0.06016928     0.36400
N117        N  0.23726274  0.28714838  0.14351955    -0.43900
N118        N  0.34649764  0.02182532  0.04914747    -0.43900
C119        C  0.08222392  0.43758632  0.10990885    -0.00300
C120        C  0.06773813  0.39742253  0.12773897    -0.12100
C121        C  0.08638154  0.37222393  0.12258817     0.02000
C122        C  0.11783664  0.38482440  0.09607663    -0.00400
C123        C  0.13414467  0.42649391  0.07995331    -0.12100
C124        C  0.11786802  0.45378126  0.08830824     0.01800
H125        H  0.04275309  0.38644518  0.14730511     0.14800
H126        H  0.15974200  0.43797527  0.06110414     0.14800
C127        C  0.13928532  0.49878652  0.07642727     0.36500
C128        C  0.07456784  0.33554102  0.14717650     0.36400
N129        N  0.15686502  0.03571394  0.06894199    -0.43900
N130        N  0.06533154  0.30634753  0.16702907    -0.43900
C131        C  0.04197291  0.13877603  0.35460572    -0.00300
C132        C  0.04536113  0.14983590  0.31431478    -0.12100
C133        C  0.06972163  0.19527416  0.30677138     0.02000
C134        C  0.09187112  0.22986554  0.33989842    -0.00400
C135        C  0.08578632  0.21896067  0.37973209    -0.12100
C136        C  0.06067094  0.17402336  0.38728363     0.01800
H137        H  0.03129318  0.12313814  0.28906381     0.14800
H138        H  0.10162622  0.24570700  0.40512540     0.14800
C139        C  0.05580583  0.16489737  0.42912407     0.36500
C140        C  0.07208998  0.20583373  0.26517787     0.36400
N141        N  0.05194216  0.15721857  0.46254250    -0.43900
N142        N  0.07355599  0.21471797  0.23193433    -0.43900
C143        C  0.33768692  0.40371835  0.37528254    -0.00300
C144        C  0.30949478  0.37349956  0.40022421    -0.12100
C145        C  0.26386647  0.35330069  0.39119903     0.02000
C146        C  0.24554064  0.36361116  0.35672597    -0.00400
C147        C  0.27388915  0.39438926  0.33218276    -0.12100
C148        C  0.31945114  0.41441893  0.34112921     0.01800
H149        H  0.32325673  0.36613044  0.42720347     0.14800
H150        H  0.26036504  0.40314985  0.30607651     0.14800
C151        C  0.34697251  0.44810150  0.31631664     0.36500
C152        C  0.23685773  0.32387125  0.41898467     0.36400
N153        N  0.36908946  0.97524113  0.29659313    -0.43900
N154        N  0.21532507  0.30032306  0.44133251    -0.43900
C155        C  0.07512001  0.42567292  0.36776603    -0.00300
C156        C  0.08274115  0.42231915  0.32746157    -0.12100
C157        C  0.10353574  0.39994575  0.31693461     0.02000
C158        C  0.11739797  0.38125697  0.34715604    -0.00400
C159        C  0.11088120  0.38581005  0.38736975    -0.12100
C160        C  0.09044704  0.40802473  0.39796669     0.01800
H161        H  0.07227425  0.43691703  0.30427168     0.14800
H162        H  0.12188691  0.37174458  0.41073602     0.14800
C163        C  0.08853911  0.41453166  0.44070576     0.36500
C164        C  0.11042807  0.39652100  0.27526471     0.36400
N165        N  0.08880346  0.41984263  0.47542325    -0.43900
N166        N  0.11622882  0.39389430  0.24191116    -0.43900
C167        C  0.37956956  0.11545280  0.23481842    -0.00300
C168        C  0.35169237  0.06995049  0.21748598    -0.12100
C169        C  0.36753826  0.04253380  0.20962924     0.02000
C170        C  0.41282949  0.06063516  0.21729997    -0.00400
C171        C  0.44134023  0.10598231  0.23426502    -0.12100
C172        C  0.42504542  0.13301837  0.24433803     0.01800
H173        H  0.31689664  0.05524960  0.20924733     0.14800
H174        H  0.47627149  0.12007101  0.24014844     0.14800
C175        C  0.45535881  0.17745780  0.26618072     0.36500
C176        C  0.33635486  0.49627769  0.19188836     0.36400
N177        N  0.47973189  0.21293641  0.28400629    -0.43900
N178        N  0.31083015  0.45928115  0.17803765    -0.43900
C179        C  0.37260118  0.25506659  0.21844445    -0.00300
C180        C  0.36813450  0.28569894  0.24282123    -0.12100
C181        C  0.38404540  0.32992742  0.23335257     0.02000
C182        C  0.40566299  0.34484984  0.19904989    -0.00400
C183        C  0.40888007  0.31353341  0.17407373    -0.12100
C184        C  0.39245368  0.26924595  0.18316761     0.01800
H185        H  0.35213276  0.27499198  0.26956004     0.14800
H186        H  0.42461590  0.32361064  0.14712978     0.14800
C187        C  0.39483295  0.23867670  0.15468388     0.36500
C188        C  0.37719662  0.35877611  0.25923815     0.36400
N189        N  0.39671551  0.21431559  0.13167985    -0.43900
N190        N  0.37112921  0.38156360  0.27988315    -0.43900
C191        C  0.24243005  0.10799922  0.24066656    -0.00300
C192        C  0.21869452  0.11894709  0.26402567    -0.12100
C193        C  0.17264990  0.09281899  0.25728932     0.02000
C194        C  0.15002744  0.05444483  0.22767248    -0.00400
C195        C  0.17382075  0.04215898  0.20618448    -0.12100
C196        C  0.21938748  0.06928347  0.21121179     0.01800
H197        H  0.23610230  0.14873872  0.28647645     0.14800
H198        H  0.15657619  0.01375144  0.18217746     0.14800
C199        C  0.24078826  0.05972578  0.18183115     0.36500
C200        C  0.14921899  0.10634663  0.28031894     0.36400
N201        N  0.25692260  0.05199464  0.15727568    -0.43900
N202        N  0.13035395  0.11709425  0.29875931    -0.43900
C203        C  0.43129248  0.07252685  0.43481826    -0.00300
C204        C  0.41859151  0.09057492  0.40318371    -0.12100
C205        C  0.39411798  0.10956374  0.40965610     0.02000
C206        C  0.38186685  0.11057920  0.44831089    -0.00400
C207        C  0.39604201  0.09457340  0.98034788    -0.12100
C208        C  0.42040245  0.07546325  0.47389493     0.01800
H209        H  0.42674930  0.08869376  0.37296554     0.14800
H210        H  0.38788110  0.09696277  0.01042290     0.14800
C211        C  0.43104766  0.05651244  0.00720816     0.36500
C212        C  0.38121255  0.12696826  0.37606804     0.36400
N213        N  0.43908842  0.04097233  0.03404353    -0.43900
N214        N  0.37091575  0.14093001  0.34913495    -0.43900
C215        C  0.44041633  0.34546509  0.46808637    -0.00300
C216        C  0.39731425  0.31985419  0.44666015    -0.12100
C217        C  0.37055542  0.27345329  0.44847157     0.02000
C218        C  0.38631307  0.25194531  0.47327255    -0.00400
C219        C  0.42849345  0.27757558  0.99593978    -0.12100
C220        C  0.45576180  0.32364503  0.49313035     0.01800
H221        H  0.38481211  0.33566116  0.42699712     0.14800
H222        H  0.44075975  0.26105167  0.01489353     0.14800
C223        C  0.49952866  0.34644857  0.01535981     0.36500
C224        C  0.32857080  0.24850119  0.42215160     0.36400
N225        N  0.03460199  0.36329201  0.03311784    -0.43900
N226        N  0.29516680  0.22891783  0.40070465    -0.43900
C227        C  0.24458969  0.10577311  0.47043360    -0.00300
C228        C  0.22314041  0.12605837  0.45330060    -0.12100
C229        C  0.17821891  0.10647078  0.45168162     0.02000
C230        C  0.15236613  0.06346640  0.46504718    -0.00400
C231        C  0.17343651  0.04232720  0.48108724    -0.12100
C232        C  0.21916328  0.06365498  0.98533072     0.01800
H233        H  0.24154480  0.15768873  0.44064474     0.14800
H234        H  0.15421529  0.00920138  0.99094827     0.14800
C235        C  0.23885126  0.04240918  0.00677743     0.36500
C236        C  0.16023673  0.13152694  0.43496835     0.36400
N237        N  0.25429933  0.02523665  0.02428967    -0.43900
N238        N  0.14665069  0.15234343  0.42175273    -0.43900
C239        C  0.35852817  0.13265913  0.45734452     0.03000
C240        C  0.38201885  0.17966488  0.46231492    -0.13100
C241        C  0.36187811  0.20237728  0.47229590     0.00500
C242        C  0.31832950  0.17770124  0.47896167    -0.11700
C243        C  0.29309024  0.13014663  0.47164215     0.03000
C244        C  0.31380321  0.10767056  0.46099337    -0.11100
H245        H  0.41600440  0.19858963  0.45762845     0.08600
H246        H  0.30366174  0.19587677  0.48821786     0.06100
H247        H  0.29528809  0.07123993  0.45411847     0.06000
C248        C  0.35919954  0.14245760  0.74101791     0.03000
C249        C  0.37799555  0.18714230  0.73094053    -0.13100
C250        C  0.35379245  0.20803461  0.72930760     0.00500
C251        C  0.30988511  0.18288062  0.73567283    -0.11700
C252        C  0.29073963  0.13835235  0.74480452     0.03000
C253        C  0.31651589  0.12008520  0.75078345    -0.11100
H254        H  0.41057619  0.20512603  0.72289179     0.08600
H255        H  0.28983974  0.19702615  0.73099842     0.06100
H256        H  0.30138787  0.08614517  0.75937602     0.06000
C257        C  0.13523705  0.35324085  0.83808833     0.03000
C258        C  0.18077106  0.37198297  0.84455505    -0.13100
C259        C  0.19734069  0.34377243  0.84638873     0.00500
C260        C  0.16759665  0.29660251  0.84111349    -0.11700
C261        C  0.12214870  0.27783642  0.83481858     0.03000
C262        C  0.10626370  0.30622142  0.83276305    -0.11100
H263        H  0.20313252  0.40832965  0.85074042     0.08600
H264        H  0.17974699  0.27448659  0.84389810     0.06100
H265        H  0.07131531  0.29179279  0.83063264     0.06000
C266        C  0.13502331  0.35600563  0.58642337     0.03000
C267        C  0.10731616  0.30861698  0.58068184    -0.13100
C268        C  0.12471240  0.28160402  0.57859099     0.00500
C269        C  0.16944585  0.30202512  0.57583121    -0.11700
C270        C  0.19764037  0.34937019  0.58042033     0.03000
C271        C  0.17997820  0.37584923  0.58650752    -0.11100
H272        H  0.07256999  0.29266575  0.58123247     0.08600
H273        H  0.18228231  0.28078778  0.57214845     0.06100
H274        H  0.20171582  0.41219974  0.59331228     0.06000
O275        O  0.08050308  0.99605973  0.95735292    -0.80300
O276        O  0.43446650  0.02235771  0.88847941    -0.80300
O277        O  0.04873773  0.08772475  0.89248086    -0.80300
O278        O  0.44863447  0.47032770  0.99964725    -0.80200
O279        O  0.99623448  0.05741795  0.83955527    -0.80400
O280        O  0.01816872  0.49744576  0.99678367    -0.80300
O281        O  0.47341346  0.03928444  0.95029372    -0.80300
O282        O  0.08429870  0.05707407  0.94573511    -0.80300
C283        C  0.10367122  0.03835967  0.95835299     1.09400
C284        C  0.44871032  0.04454304  0.92402148     1.09300
C285        C  0.02699504  0.09211094  0.86301833     1.09500
C286        C  0.48740419  0.48821768  0.51811924     1.09300
O287        O  0.50879866  0.41725595  0.97445206    -0.80300
O288        O  0.47893697  0.96733747  0.81770635    -0.80300
O289        O  0.07685443  0.49369519  0.87923589    -0.80300
O290        O  0.40292897  0.45043759  0.92306394    -0.80200
O291        O  0.41086941  0.43142519  0.86288609    -0.80300
O292        O  0.01955714  0.43053079  0.89430981    -0.80300
O293        O  0.44950542  0.41272595  0.94400937    -0.80200
O294        O  0.04474255  0.02951448  0.82567421    -0.80300
Co295      Co  0.01504410  0.46292532  0.94180618     1.51500
Co296      Co  0.45735119  0.99351626  0.85460567     1.51700
Co297      Co  0.06095061  0.04044834  0.88727010     1.51600
Co298      Co  0.46615785  0.47928623  0.94713923     1.51500
O299        O  0.50089518  0.49678368  0.90101590    -1.42200
C300        C  0.46771247  0.39405959  0.96280518     1.09400
C301        C  0.51283780  0.49482281  0.80330156     1.09500
C302        C  0.05497022  0.45079991  0.87922731     1.09400
C303        C  0.38592788  0.42808206  0.88803606     1.09400
O304        O  0.07943339  0.99060948  0.70073114    -0.80300
O305        O  0.45748835  0.04680190  0.67891806    -0.80300
O306        O  0.04915117  0.09146504  0.65657324    -0.80300
O307        O  0.50093505  0.51647178  0.74038895    -0.80200
O308        O  0.99529103  0.06888063  0.60848099    -0.80400
O309        O  0.00896297  0.45841783  0.73971026    -0.80300
O310        O  0.41649618  0.99494788  0.71720562    -0.80300
O311        O  0.09105925  0.05863204  0.69861610    -0.80300
C312        C  0.10349076  0.03323172  0.71074911     1.09400
C313        C  0.43004142  0.03311784  0.70463167     1.09300
C314        C  0.03083799  0.10114516  0.62849662     1.09500
C315        C  0.51018884  0.49130888  0.75906798     1.09300
O316        O  0.45212534  0.40372768  0.66210824    -0.80300
O317        O  0.46437099  0.97801844  0.58234372    -0.80300
O318        O  0.08275724  0.50483396  0.62627454    -0.80300
O319        O  0.40473699  0.45030341  0.64333380    -0.80200
O320        O  0.40834806  0.50133667  0.60497602    -0.80300
O321        O  0.02198645  0.43950856  0.62443659    -0.80300
O322        O  0.43053515  0.42479179  0.71109893    -0.80200
O323        O  0.03399271  0.03156215  0.58148809    -0.80300
Co324      Co  0.01435679  0.44959258  0.68017882     1.51500
Co325      Co  0.46151822  0.00910760  0.63114450     1.51700
Co326      Co  0.06120400  0.04501637  0.64200088     1.51600
Co327      Co  0.45636290  0.48699063  0.69130775     1.51500
O328        O  0.50523821  0.49794321  0.66133635    -1.42200
C329        C  0.42877080  0.39288711  0.68975411     1.09400
C330        C  0.49628237  0.49937884  0.56299428     1.09500
C331        C  0.06083423  0.46216329  0.61795422     1.09400
C332        C  0.38590455  0.46250225  0.61637168     1.09400
C333        C  0.09930134  0.23475474  0.58960605    -0.00300
C334        C  0.11728332  0.22529806  0.62429377    -0.12100
C335        C  0.09498542  0.18309697  0.63844538     0.02000
C336        C  0.05323532  0.14824849  0.61731610     0.01800
C337        C  0.03450091  0.15823543  0.58321727    -0.12100
C338        C  0.05687572  0.20117929  0.56959129     0.01800
H339        H  0.14883385  0.25161371  0.64112684     0.14800
H340        H  0.00248373  0.13241508  0.56688637     0.14800
C341        C  0.03583427  0.20981710  0.53494819     0.36500
C342        C  0.11637386  0.17739517  0.67495988     0.36400
N343        N  0.01885752  0.21692610  0.50739575    -0.43900
N344        N  0.13365679  0.17325787  0.70432274    -0.43900
C345        C  0.24611045  0.37264216  0.58266550    -0.00300
C346        C  0.26829301  0.41315398  0.56497282    -0.12100
C347        C  0.31376612  0.44273428  0.57427923     0.02000
C348        C  0.33872205  0.43062062  0.59978728    -0.00400
C349        C  0.31695521  0.38785077  0.61377048    -0.12100
C350        C  0.27127510  0.35946364  0.60647497     0.01800
H351        H  0.24958529  0.42336478  0.54588698     0.14800
H352        H  0.33542747  0.37754985  0.63308231     0.14800
C353        C  0.25190361  0.31926182  0.62694021     0.36500
C354        C  0.33254942  0.48660091  0.56016921     0.36400
N355        N  0.23726265  0.28714833  0.64351962    -0.43900
N356        N  0.34649757  0.02182508  0.54914717    -0.43900
C357        C  0.08222393  0.43758630  0.60990886    -0.00300
C358        C  0.06773812  0.39742249  0.62773899    -0.12100
C359        C  0.08638157  0.37222392  0.62258819     0.02000
C360        C  0.11783667  0.38482440  0.59607665    -0.00400
C361        C  0.13414470  0.42649391  0.57995334    -0.12100
C362        C  0.11786804  0.45378126  0.58830829     0.01800
H363        H  0.04275319  0.38644518  0.64730504     0.14800
H364        H  0.15974204  0.43797528  0.56110421     0.14800
C365        C  0.13928541  0.49878655  0.57642739     0.36500
C366        C  0.07456790  0.33554102  0.64717653     0.36400
N367        N  0.15686512  0.03571398  0.56894214    -0.43900
N368        N  0.06533162  0.30634754  0.66702911    -0.43900
C369        C  0.04197300  0.13877607  0.85460564    -0.00300
C370        C  0.04536123  0.14983595  0.81431473    -0.12100
C371        C  0.06972167  0.19527417  0.80677128     0.02000
C372        C  0.09187115  0.22986559  0.83989833    -0.00400
C373        C  0.08578635  0.21896072  0.87973199    -0.12100
C374        C  0.06067101  0.17402343  0.88728356     0.01800
H375        H  0.03129320  0.12313800  0.78906360     0.14800
H376        H  0.10162627  0.24570715  0.90512538     0.14800
C377        C  0.05580591  0.16489744  0.92912400     0.36500
C378        C  0.07208995  0.20583376  0.76517778     0.36400
N379        N  0.05194227  0.15721863  0.96254243    -0.43900
N380        N  0.07355589  0.21471801  0.73193424    -0.43900
C381        C  0.33768697  0.40371842  0.87528251    -0.00300
C382        C  0.30949481  0.37349960  0.90022414    -0.12100
C383        C  0.26386650  0.35330072  0.89119895     0.02000
C384        C  0.24554068  0.36361119  0.85672587    -0.00400
C385        C  0.27388920  0.39438930  0.83218269    -0.12100
C386        C  0.31945120  0.41441899  0.84112917     0.01800
H387        H  0.32325676  0.36613047  0.92720343     0.14800
H388        H  0.26036509  0.40314990  0.80607640     0.14800
C389        C  0.34697260  0.44810161  0.81631664     0.36500
C390        C  0.23685776  0.32387127  0.91898458     0.36400
N391        N  0.36908958  0.97524127  0.79659310    -0.43900
N392        N  0.21532513  0.30032308  0.94133244    -0.43900
C393        C  0.07512002  0.42567292  0.86776602    -0.00300
C394        C  0.08274120  0.42231923  0.82746155    -0.12100
C395        C  0.10353580  0.39994582  0.81693458     0.02000
C396        C  0.11739800  0.38125700  0.84715597    -0.00400
C397        C  0.11088119  0.38581001  0.88736970    -0.12100
C398        C  0.09044701  0.40802469  0.89796664     0.01800
H399        H  0.07227438  0.43691708  0.80427179     0.14800
H400        H  0.12188681  0.37174459  0.91073580     0.14800
C401        C  0.08853906  0.41453154  0.94070572     0.36500
C402        C  0.11042817  0.39652112  0.77526468     0.36400
N403        N  0.08880339  0.41984245  0.97542322    -0.43900
N404        N  0.11622896  0.39389445  0.74191115    -0.43900
C405        C  0.37956951  0.11545277  0.73481843    -0.00300
C406        C  0.35169236  0.06995048  0.71748601    -0.12100
C407        C  0.36753820  0.04253378  0.70962923     0.02000
C408        C  0.41282944  0.06063513  0.71729996    -0.00400
C409        C  0.44134021  0.10598229  0.73426501    -0.12100
C410        C  0.42504538  0.13301835  0.74433801     0.01800
H411        H  0.31689633  0.05524947  0.70924730     0.14800
H412        H  0.47627133  0.12007093  0.74014838     0.14800
C413        C  0.45535881  0.17745781  0.76618063     0.36500
C414        C  0.33635483  0.49627770  0.69188837     0.36400
N415        N  0.47973195  0.21293645  0.78400613    -0.43900
N416        N  0.31083010  0.45928116  0.67803767    -0.43900
C417        C  0.37260109  0.25506655  0.71844443    -0.00300
C418        C  0.36813434  0.28569889  0.74282116    -0.12100
C419        C  0.38404525  0.32992737  0.73335250     0.02000
C420        C  0.40566291  0.34484982  0.69904986    -0.00400
C421        C  0.40888005  0.31353340  0.67407376    -0.12100
C422        C  0.39245367  0.26924595  0.68316762     0.01800
H423        H  0.35213256  0.27499191  0.76955993     0.14800
H424        H  0.42461599  0.32361069  0.64712975     0.14800
C425        C  0.39483301  0.23867673  0.65468393     0.36500
C426        C  0.37719641  0.35877605  0.75923805     0.36400
N427        N  0.39671563  0.21431564  0.63167992    -0.43900
N428        N  0.37112898  0.38156352  0.77988304    -0.43900
C429        C  0.24242997  0.10799916  0.74066659    -0.00300
C430        C  0.21869446  0.11894706  0.76402571    -0.12100
C431        C  0.17264982  0.09281894  0.75728934     0.02000
C432        C  0.15002737  0.05444479  0.72767251    -0.00400
C433        C  0.17382067  0.04215892  0.70618452    -0.12100
C434        C  0.21938741  0.06928342  0.71121182     0.01800
H435        H  0.23610214  0.14873853  0.78647637     0.14800
H436        H  0.15657613  0.01375141  0.68217752     0.14800
C437        C  0.24078817  0.05972571  0.68183118     0.36500
C438        C  0.14921890  0.10634660  0.78031894     0.36400
N439        N  0.25692250  0.05199455  0.65727571    -0.43900
N440        N  0.13035384  0.11709422  0.79875927    -0.43900
C441        C  0.43129261  0.07252702  0.93481825    -0.00300
C442        C  0.41859163  0.09057508  0.90318369    -0.12100
C443        C  0.39411809  0.10956389  0.90965606     0.02000
C444        C  0.38186699  0.11057939  0.94831085    -0.00400
C445        C  0.39604185  0.09457316  0.48034790    -0.12100
C446        C  0.42040258  0.07546345  0.97389491     0.01800
H447        H  0.42674939  0.08869388  0.87296549     0.14800
H448        H  0.38788095  0.09696254  0.51042293     0.14800
C449        C  0.43104763  0.05651232  0.50720819     0.36500
C450        C  0.38121257  0.12696832  0.87606797     0.36400
N451        N  0.43908850  0.04097230  0.53404357    -0.43900
N452        N  0.37091567  0.14093000  0.84913488    -0.43900
C453        C  0.44041636  0.34546519  0.96808637    -0.00300
C454        C  0.39731430  0.31985430  0.94666008    -0.12100
C455        C  0.37055547  0.27345339  0.94847149     0.02000
C456        C  0.38631309  0.25194542  0.97327248    -0.00400
C457        C  0.42849346  0.27757548  0.49593978    -0.12100
C458        C  0.45576179  0.32364513  0.99313038     0.01800
H459        H  0.38481220  0.33566125  0.92699706     0.14800
H460        H  0.44075980  0.26105156  0.51489354     0.14800
C461        C  0.49952869  0.34644849  0.51535972     0.36500
C462        C  0.32857087  0.24850129  0.92215147     0.36400
N463        N  0.03460208  0.36329198  0.53311771    -0.43900
N464        N  0.29516689  0.22891787  0.90070451    -0.43900
C465        C  0.24458974  0.10577317  0.97043351    -0.00300
C466        C  0.22314042  0.12605841  0.95330056    -0.12100
C467        C  0.17821893  0.10647080  0.95168162     0.02000
C468        C  0.15236617  0.06346640  0.96504716    -0.00400
C469        C  0.17343658  0.04232721  0.98108716    -0.12100
C470        C  0.21916320  0.06365494  0.48533081     0.01800
H471        H  0.24154481  0.15768882  0.94064469     0.14800
H472        H  0.15421524  0.00920145  0.49094834     0.14800
C473        C  0.23885113  0.04240910  0.50677753     0.36500
C474        C  0.16023672  0.13152696  0.93496838     0.36400
N475        N  0.25429915  0.02523651  0.52428976    -0.43900
N476        N  0.14665066  0.15234342  0.92175278    -0.43900
C477        C  0.35852471  0.63265301  0.95732374     0.03000
C478        C  0.38202222  0.67965937  0.96230633    -0.13100
C479        C  0.36188962  0.70237537  0.97230470     0.00500
C480        C  0.31834315  0.67770085  0.97897898    -0.11700
C481        C  0.29309452  0.63014619  0.97164392     0.03000
C482        C  0.31380025  0.60766855  0.96097437    -0.11100
H483        H  0.41600690  0.69858180  0.95761715     0.08600
H484        H  0.30368579  0.69587998  0.98825510     0.06100
H485        H  0.29528094  0.57123934  0.95408577     0.06000
C486        C  0.35919256  0.64244234  0.24102725     0.03000
C487        C  0.37799852  0.68713669  0.23097262    -0.13100
C488        C  0.35379797  0.70803236  0.22934155     0.00500
C489        C  0.30988444  0.68287281  0.23568839    -0.11700
C490        C  0.29072988  0.63833603  0.24479926     0.03000
C491        C  0.31650204  0.62006424  0.25077645    -0.11100
H492        H  0.41058493  0.70512552  0.22293682     0.08600
H493        H  0.28984205  0.69702168  0.23101491     0.06100
H494        H  0.30136739  0.58611866  0.25935615     0.06000
C495        C  0.13522708  0.85324492  0.33808028     0.03000
C496        C  0.18076152  0.87198809  0.34454744    -0.13100
C497        C  0.19733377  0.84377972  0.34637788     0.00500
C498        C  0.16758967  0.79660868  0.34109503    -0.11700
C499        C  0.12214064  0.77783996  0.33480259     0.03000
C500        C  0.10625435  0.80622469  0.33275293    -0.11100
H501        H  0.20312168  0.90833484  0.35073720     0.08600
H502        H  0.17974073  0.77449315  0.34387432     0.06100
H503        H  0.07130613  0.79179511  0.33062484     0.06000
C504        C  0.13502574  0.85599023  0.08639382     0.03000
C505        C  0.10732516  0.80860067  0.08063744    -0.13100
C506        C  0.12472970  0.78159437  0.07855092     0.00500
C507        C  0.16946792  0.80202554  0.07580824    -0.11700
C508        C  0.19765549  0.84937138  0.08040834     0.03000
C509        C  0.17998394  0.87584206  0.08649133    -0.11100
H510        H  0.07257651  0.79264246  0.08117528     0.08600
H511        H  0.18231393  0.78079551  0.07213253     0.06100
H512        H  0.20171777  0.91219213  0.09330598     0.06000
O513        O  0.08049873  0.49604551  0.45733527    -0.80300
O514        O  0.43446749  0.52235360  0.38845500    -0.80300
O515        O  0.04874761  0.58771985  0.39245590    -0.80300
O516        O  0.44863757  0.97033447  0.49967201    -0.80200
O517        O  0.99623930  0.55741442  0.33953392    -0.80400
O518        O  0.01817034  0.99744493  0.49680557    -0.80300
O519        O  0.47341162  0.53927853  0.45027079    -0.80300
O520        O  0.08429886  0.55706053  0.44571122    -0.80300
C521        C  0.10366880  0.53834537  0.45833531     1.09400
C522        C  0.44870755  0.54453581  0.42399840     1.09300
C523        C  0.02700211  0.59210695  0.36299644     1.09500
C524        C  0.48740718  0.98821853  0.01814253     1.09300
O525        O  0.50880981  0.91726135  0.47446528    -0.80300
O526        O  0.47893560  0.46732976  0.31768267    -0.80300
O527        O  0.07686131  0.99371291  0.37925741    -0.80300
O528        O  0.40292732  0.95044117  0.42308893    -0.80200
O529        O  0.41086695  0.93142912  0.36291055    -0.80300
O530        O  0.01956393  0.93054394  0.39432422    -0.80300
O531        O  0.44951062  0.91273133  0.44403629    -0.80200
O532        O  0.04474239  0.52950303  0.32564813    -0.80300
Co533      Co  0.01504785  0.96293131  0.44182441     1.51500
Co534      Co  0.45735293  0.49351172  0.35458221     1.51700
Co535      Co  0.06095126  0.54043615  0.38724572     1.51600
Co536      Co  0.46615890  0.97929156  0.44716318     1.51500
O537        O  0.50089511  0.99678999  0.40103913    -1.42200
C538        C  0.46772220  0.89406467  0.46282484     1.09400
C539        C  0.51284110  0.99483206  0.30332793     1.09500
C540        C  0.05497747  0.95081673  0.37924280     1.09400
C541        C  0.38592498  0.92808691  0.38806021     1.09400
O542        O  0.07942367  0.49061080  0.20070060    -0.80300
O543        O  0.45746972  0.54678926  0.17889278    -0.80300
O544        O  0.04913152  0.59146295  0.15655481    -0.80300
O545        O  0.50095137  0.01648340  0.24041416    -0.80200
O546        O  0.99527682  0.56887865  0.10845684    -0.80400
O547        O  0.00897123  0.95842487  0.23974183    -0.80300
O548        O  0.41647708  0.49492786  0.21717526    -0.80300
O549        O  0.09104874  0.55863434  0.19859393    -0.80300
C550        C  0.10348009  0.53323217  0.21072293     1.09400
C551        C  0.43002274  0.53310015  0.20460628     1.09300
C552        C  0.03082452  0.60114314  0.12847281     1.09500
C553        C  0.51019864  0.99131801  0.25909614     1.09300
O554        O  0.45213097  0.90372993  0.16214678    -0.80300
O555        O  0.46436492  0.47801770  0.08231841    -0.80300
O556        O  0.08276199  0.00481831  0.12629949    -0.80300
O557        O  0.40474752  0.95031724  0.14336534    -0.80200
O558        O  0.40836446  0.00135050  0.10500284    -0.80300
O559        O  0.02199276  0.93949388  0.12447252    -0.80300
O560        O  0.43054127  0.92480013  0.21113396    -0.80200
O561        O  0.03398411  0.53157027  0.08146495    -0.80300
Co562      Co  0.01436459  0.94959220  0.18021264     1.51500
Co563      Co  0.46150586  0.50910225  0.13111835     1.51700
Co564      Co  0.06119393  0.54502351  0.14197859     1.51600
Co565      Co  0.45637584  0.98700016  0.19133683     1.51500
O566        O  0.50524726  0.99794256  0.16136221    -1.42200
C567        C  0.42877655  0.89289243  0.18979312     1.09400
C568        C  0.49628806  0.99937620  0.06301817     1.09500
C569        C  0.06083802  0.96214667  0.11798169     1.09400
C570        C  0.38591816  0.96251822  0.11640178     1.09400
C571        C  0.09931905  0.73474173  0.08955968    -0.00300
C572        C  0.11729474  0.72528418  0.12425132    -0.12100
C573        C  0.09498585  0.68308859  0.13841170     0.02000
C574        C  0.05323435  0.64824260  0.11728214     0.01800
C575        C  0.03451035  0.65822709  0.08317370    -0.12100
C576        C  0.05689297  0.70116841  0.06954357     0.01800
H577        H  0.14884502  0.75159858  0.14108633     0.14800
H578        H  0.00249323  0.63240822  0.06684143     0.14800
C579        C  0.03585519  0.70980850  0.03489938     0.36500
C580        C  0.11636010  0.67739439  0.17494145     0.36400
N581        N  0.01888097  0.71692058  0.00734722    -0.43900
N582        N  0.13363293  0.67326745  0.20431799    -0.43900
C583        C  0.24612748  0.87265210  0.08267218    -0.00300
C584        C  0.26831257  0.91316419  0.06498051    -0.12100
C585        C  0.31378450  0.94274816  0.07429651     0.02000
C586        C  0.33873636  0.93063903  0.09981688    -0.00400
C587        C  0.31696732  0.88787244  0.11380559    -0.12100
C588        C  0.27128856  0.85948052  0.10649730     0.01800
H589        H  0.24960674  0.92337030  0.04588491     0.14800
H590        H  0.33543630  0.87757551  0.13312809     0.14800
C591        C  0.25191403  0.81927887  0.12696254     0.36500
C592        C  0.33257008  0.98661061  0.06017693     0.36400
N593        N  0.23727413  0.78716623  0.14354306    -0.43900
N594        N  0.34647742  0.52182046  0.04915029    -0.43900
C595        C  0.08222042  0.93756436  0.10991363    -0.00300
C596        C  0.06771243  0.89737626  0.12770805    -0.12100
C597        C  0.08635516  0.87217793  0.12254690     0.02000
C598        C  0.11782932  0.88480021  0.09605271    -0.00400
C599        C  0.13415328  0.92648783  0.07995988    -0.12100
C600        C  0.11788165  0.95377637  0.08833259     0.01800
H601        H  0.04271431  0.88638129  0.14726085     0.14800
H602        H  0.15976415  0.93798611  0.06112505     0.14800
C603        C  0.13933041  0.99880253  0.07649811     0.36500
C604        C  0.07452537  0.83547650  0.14711494     0.36400
N605        N  0.15679000  0.53568384  0.06883516    -0.43900
N606        N  0.06527642  0.80626915  0.16695264    -0.43900
C607        C  0.04197812  0.63877323  0.35458659    -0.00300
C608        C  0.04536216  0.64983555  0.31429631    -0.12100
C609        C  0.06971563  0.69527488  0.30675372     0.02000
C610        C  0.09186515  0.72986644  0.33988120    -0.00400
C611        C  0.08578483  0.71895825  0.37971496    -0.12100
C612        C  0.06067483  0.67401941  0.38726545     0.01800
H613        H  0.03129531  0.62313874  0.28904438     0.14800
H614        H  0.10162393  0.74570337  0.40510921     0.14800
C615        C  0.05581291  0.66489071  0.42910561     0.36500
C616        C  0.07207331  0.70583458  0.26516001     0.36400
N617        N  0.05195194  0.65720914  0.46252369    -0.43900
N618        N  0.07352829  0.71471655  0.23191565    -0.43900
C619        C  0.33768351  0.90373084  0.37530237    -0.00300
C620        C  0.30948147  0.87348967  0.40022494    -0.12100
C621        C  0.26385264  0.85328860  0.39118843     0.02000
C622        C  0.24553557  0.86362185  0.35672535    -0.00400
C623        C  0.27389492  0.89442637  0.33220446    -0.12100
C624        C  0.31945683  0.91445408  0.34115953     0.01800
H625        H  0.32323539  0.86610115  0.42719615     0.14800
H626        H  0.26037913  0.90320532  0.30610633     0.14800
C627        C  0.34698859  0.94815045  0.31636245     0.36500
C628        C  0.23683225  0.82382936  0.41895151     0.36400
N629        N  0.36906255  0.47518228  0.29653431    -0.43900
N630        N  0.21528666  0.80025531  0.44127824    -0.43900
C631        C  0.07512730  0.92569128  0.36777623    -0.00300
C632        C  0.08271434  0.92230948  0.32746305    -0.12100
C633        C  0.10350222  0.89993093  0.31692902     0.02000
C634        C  0.11738934  0.88126228  0.34715132    -0.00400
C635        C  0.11090681  0.88584411  0.38737312    -0.12100
C636        C  0.09048102  0.90806582  0.39797707     0.01800
H637        H  0.07222703  0.93689032  0.30427228     0.14800
H638        H  0.12193237  0.87179551  0.41074001     0.14800
C639        C  0.08860265  0.91459809  0.44072041     0.36500
C640        C  0.11036753  0.89648626  0.27525202     0.36400
N641        N  0.08888706  0.91992849  0.47543975    -0.43900
N642        N  0.11614736  0.89384584  0.24189262    -0.43900
C643        C  0.37955989  0.61543589  0.23481840    -0.00300
C644        C  0.35168135  0.56993896  0.21747011    -0.12100
C645        C  0.36752363  0.54252113  0.20960382     0.02000
C646        C  0.41281297  0.56061624  0.21728165    -0.00400
C647        C  0.44132553  0.60595770  0.23426096    -0.12100
C648        C  0.42503419  0.63299449  0.24434258     0.01800
H649        H  0.31688732  0.55524310  0.20922610     0.14800
H650        H  0.47625565  0.62004145  0.24014788     0.14800
C651        C  0.45535032  0.67742722  0.26619631     0.36500
C652        C  0.33637027  0.99628408  0.19193055     0.36400
N653        N  0.47972730  0.71290060  0.28402974    -0.43900
N654        N  0.31084594  0.95928261  0.17809321    -0.43900
C655        C  0.37261198  0.75506951  0.21848677    -0.00300
C656        C  0.36813267  0.78569714  0.24285751    -0.12100
C657        C  0.38404065  0.82992636  0.23338835     0.02000
C658        C  0.40566921  0.84485454  0.19909198    -0.00400
C659        C  0.40889825  0.81354229  0.17412256    -0.12100
C660        C  0.39247608  0.76925579  0.18321682     0.01800
H661        H  0.35212070  0.77498500  0.26959009     0.14800
H662        H  0.42464139  0.82362224  0.14718312     0.14800
C663        C  0.39487501  0.73869530  0.15474024     0.36500
C664        C  0.37716995  0.85876613  0.25926186     0.36400
N665        N  0.39677555  0.71434197  0.13174296    -0.43900
N666        N  0.37108133  0.88154309  0.27989699    -0.43900
C667        C  0.24241866  0.60798610  0.24065284    -0.00300
C668        C  0.21868246  0.61893732  0.26400776    -0.12100
C669        C  0.17263795  0.59281415  0.25726642     0.02000
C670        C  0.15001553  0.55444190  0.22764832    -0.00400
C671        C  0.17380814  0.54215113  0.20616496    -0.12100
C672        C  0.21937548  0.56927016  0.21119751     0.01800
H673        H  0.23608999  0.64872747  0.28645997     0.14800
H674        H  0.15656337  0.51374361  0.18215784     0.14800
C675        C  0.24077518  0.55970552  0.18182076     0.36500
C676        C  0.14920667  0.60634331  0.28029353     0.36400
N677        N  0.25690432  0.55196500  0.15726615    -0.43900
N678        N  0.13033988  0.61709066  0.29873142    -0.43900
C679        C  0.43128369  0.57251345  0.43479658    -0.00300
C680        C  0.41860239  0.59058163  0.40316705    -0.12100
C681        C  0.39413075  0.60957324  0.40963870     0.02000
C682        C  0.38185753  0.61056676  0.44828640    -0.00400
C683        C  0.39600695  0.59453315  0.98031749    -0.12100
C684        C  0.42036990  0.57542538  0.47386650     0.01800
H685        H  0.42677735  0.58871760  0.37295406     0.14800
H686        H  0.38782995  0.59690593  0.01038798     0.14800
C687        C  0.43100425  0.55646319  0.00717649     0.36500
C688        C  0.38125115  0.62700426  0.37605676     0.36400
N689        N  0.43904061  0.54091917  0.03401104    -0.43900
N690        N  0.37097551  0.64098737  0.34912828    -0.43900
C691        C  0.44042847  0.84546879  0.46810561    -0.00300
C692        C  0.39731931  0.81986076  0.44669516    -0.12100
C693        C  0.37056321  0.77345832  0.44850146     0.02000
C694        C  0.38632784  0.75194556  0.47328714    -0.00400
C695        C  0.42851633  0.77757295  0.99593973    -0.12100
C696        C  0.45578421  0.82364330  0.49312981     0.01800
H697        H  0.38480983  0.83567066  0.42704490     0.14800
H698        H  0.44079010  0.76104578  0.01487921     0.14800
C699        C  0.49956385  0.84644024  0.01532985     0.36500
C700        C  0.32857574  0.74850864  0.42218597     0.36400
N701        N  0.03464846  0.86327980  0.03306069    -0.43900
N702        N  0.29517046  0.72892624  0.40074100    -0.43900
C703        C  0.24459298  0.60577462  0.47044392    -0.00300
C704        C  0.22314774  0.62608601  0.45336207    -0.12100
C705        C  0.17822530  0.60649316  0.45174393     0.02000
C706        C  0.15236476  0.56345477  0.46504532    -0.00400
C707        C  0.17343077  0.54229235  0.48103634    -0.12100
C708        C  0.21915905  0.56362740  0.98529308     0.01800
H709        H  0.24155391  0.65774074  0.44074472     0.14800
H710        H  0.15420514  0.50914342  0.99085433     0.14800
C711        C  0.23883954  0.54235974  0.00671213     0.36500
C712        C  0.16025060  0.63158395  0.43510262     0.36400
N713        N  0.25428101  0.52517037  0.02420482    -0.43900
N714        N  0.14666782  0.65242603  0.42194646    -0.43900
C715        C  0.35852468  0.63265297  0.45732377     0.03000
C716        C  0.38202221  0.67965935  0.46230636    -0.13100
C717        C  0.36188960  0.70237535  0.47230472     0.00500
C718        C  0.31834313  0.67770082  0.47897898    -0.11700
C719        C  0.29309449  0.63014614  0.47164393     0.03000
C720        C  0.31380025  0.60766855  0.46097440    -0.11100
H721        H  0.41600689  0.69858178  0.45761718     0.08600
H722        H  0.30368576  0.69587994  0.48825510     0.06100
H723        H  0.29528080  0.57123906  0.45408575     0.06000
C724        C  0.35919250  0.64244233  0.74102724     0.03000
C725        C  0.37799843  0.68713666  0.73097257    -0.13100
C726        C  0.35379783  0.70803230  0.72934150     0.00500
C727        C  0.30988433  0.68287273  0.73568835    -0.11700
C728        C  0.29072980  0.63833599  0.74479927     0.03000
C729        C  0.31650199  0.62006421  0.75077647    -0.11100
H730        H  0.41058478  0.70512547  0.72293677     0.08600
H731        H  0.28984182  0.69702165  0.73101484     0.06100
H732        H  0.30136739  0.58611872  0.75935619     0.06000
C733        C  0.13522707  0.85324493  0.83808024     0.03000
C734        C  0.18076154  0.87198815  0.84454739    -0.13100
C735        C  0.19733379  0.84377978  0.84637778     0.00500
C736        C  0.16758971  0.79660874  0.84109494    -0.11700
C737        C  0.12214068  0.77784000  0.83480251     0.03000
C738        C  0.10625437  0.80622471  0.83275287    -0.11100
H739        H  0.20312158  0.90833474  0.85073714     0.08600
H740        H  0.17974079  0.77449323  0.84387423     0.06100
H741        H  0.07130616  0.79179512  0.83062477     0.06000
C742        C  0.13502573  0.85599019  0.58639376     0.03000
C743        C  0.10732514  0.80860063  0.58063739    -0.13100
C744        C  0.12472966  0.78159431  0.57855089     0.00500
C745        C  0.16946789  0.80202546  0.57580822    -0.11700
C746        C  0.19765546  0.84937131  0.58040829     0.03000
C747        C  0.17998392  0.87584199  0.58649126    -0.11100
H748        H  0.07257647  0.79264241  0.58117522     0.08600
H749        H  0.18231388  0.78079546  0.57213256     0.06100
H750        H  0.20171780  0.91219213  0.59330589     0.06000
O751        O  0.08049875  0.49604554  0.95733527    -0.80300
O752        O  0.43446755  0.52235368  0.88845498    -0.80300
O753        O  0.04874763  0.58771987  0.89245587    -0.80300
O754        O  0.44863760  0.97033453  0.99967202    -0.80200
O755        O  0.99623932  0.55741443  0.83953389    -0.80400
O756        O  0.01817038  0.99744495  0.99680555    -0.80300
O757        O  0.47341169  0.53927863  0.95027076    -0.80300
O758        O  0.08429889  0.55706056  0.94571120    -0.80300
C759        C  0.10366883  0.53834540  0.95833530     1.09400
C760        C  0.44870762  0.54453591  0.92399838     1.09300
C761        C  0.02700215  0.59210697  0.86299640     1.09500
C762        C  0.48740715  0.98821848  0.51814253     1.09300
O763        O  0.50880981  0.91726140  0.97446525    -0.80300
O764        O  0.47893564  0.46732978  0.81768268    -0.80300
O765        O  0.07686129  0.99371289  0.87925738    -0.80300
O766        O  0.40292734  0.95044127  0.92308892    -0.80200
O767        O  0.41086699  0.93142925  0.86291053    -0.80300
O768        O  0.01956387  0.93054395  0.89432417    -0.80300
O769        O  0.44951062  0.91273138  0.94403627    -0.80200
O770        O  0.04474240  0.52950302  0.82564812    -0.80300
Co771      Co  0.01504786  0.96293134  0.94182438     1.51500
Co772      Co  0.45735298  0.49351177  0.85458220     1.51700
Co773      Co  0.06095128  0.54043616  0.88724570     1.51600
Co774      Co  0.46615892  0.97929163  0.94716318     1.51500
O775        O  0.50089512  0.99679006  0.90103912    -1.42200
C776        C  0.46772220  0.89406470  0.96282480     1.09400
C777        C  0.51284110  0.99483214  0.80332792     1.09500
C778        C  0.05497742  0.95081671  0.87924277     1.09400
C779        C  0.38592501  0.92808704  0.88806018     1.09400
O780        O  0.07942360  0.49061076  0.70070061    -0.80300
O781        O  0.45746969  0.54678926  0.67889272    -0.80300
O782        O  0.04913149  0.59146291  0.65655477    -0.80300
O783        O  0.50095132  0.01648340  0.74041412    -0.80200
O784        O  0.99527678  0.56887860  0.60845680    -0.80400
O785        O  0.00897117  0.95842485  0.73974183    -0.80300
O786        O  0.41647711  0.49492792  0.71717529    -0.80300
O787        O  0.09104870  0.55863431  0.69859391    -0.80300
C788        C  0.10348003  0.53323214  0.71072295     1.09400
C789        C  0.43002273  0.53310018  0.70460624     1.09300
C790        C  0.03082448  0.60114311  0.62847278     1.09500
C791        C  0.51019862  0.99131805  0.75909612     1.09300
O792        O  0.45213095  0.90372988  0.66214680    -0.80300
O793        O  0.46436485  0.47801760  0.58231840    -0.80300
O794        O  0.08276194  0.00481826  0.62629949    -0.80300
O795        O  0.40474751  0.95031716  0.64336529    -0.80200
O796        O  0.40836440  0.00135047  0.60500289    -0.80300
O797        O  0.02199273  0.93949381  0.62447253    -0.80300
O798        O  0.43054123  0.92480010  0.71113396    -0.80200
O799        O  0.03398405  0.53157019  0.58146494    -0.80300
Co800      Co  0.01436454  0.94959216  0.68021264     1.51500
Co801      Co  0.46150582  0.50910220  0.63111832     1.51700
Co802      Co  0.06119388  0.54502346  0.64197857     1.51600
Co803      Co  0.45637579  0.98700011  0.69133679     1.51500
O804        O  0.50524722  0.99794250  0.66136219    -1.42200
C805        C  0.42877650  0.89289239  0.68979313     1.09400
C806        C  0.49628801  0.99937616  0.56301817     1.09500
C807        C  0.06083799  0.96214662  0.61798169     1.09400
C808        C  0.38591812  0.96251815  0.61640178     1.09400
C809        C  0.09931901  0.73474169  0.58955967    -0.00300
C810        C  0.11729464  0.72528416  0.62425137    -0.12100
C811        C  0.09498575  0.68308859  0.63841176     0.02000
C812        C  0.05323428  0.64824256  0.61728213     0.01800
C813        C  0.03451033  0.65822705  0.58317366    -0.12100
C814        C  0.05689293  0.70116835  0.56954353     0.01800
H815        H  0.14884493  0.75159860  0.64108641     0.14800
H816        H  0.00249312  0.63240806  0.56684130     0.14800
C817        C  0.03585518  0.70980844  0.53489932     0.36500
C818        C  0.11635990  0.67739442  0.67494159     0.36400
N819        N  0.01888096  0.71692050  0.50734715    -0.43900
N820        N  0.13363265  0.67326749  0.70431820    -0.43900
C821        C  0.24612745  0.87265200  0.58267215    -0.00300
C822        C  0.26831253  0.91316404  0.56498039    -0.12100
C823        C  0.31378448  0.94274802  0.57429641     0.02000
C824        C  0.33873631  0.93063896  0.59981685    -0.00400
C825        C  0.31696728  0.88787240  0.61380568    -0.12100
C826        C  0.27128850  0.85948048  0.60649736     0.01800
H827        H  0.24960680  0.92337005  0.54588483     0.14800
H828        H  0.33543613  0.87757558  0.63312813     0.14800
C829        C  0.25191397  0.81927891  0.62696271     0.36500
C830        C  0.33257004  0.98661041  0.56017673     0.36400
N831        N  0.23727406  0.78716633  0.64354332    -0.43900
N832        N  0.34647737  0.52182033  0.54915021    -0.43900
C833        C  0.08222039  0.93756431  0.60991363    -0.00300
C834        C  0.06771240  0.89737619  0.62770798    -0.12100
C835        C  0.08635512  0.87217786  0.62254685     0.02000
C836        C  0.11782932  0.88480018  0.59605268    -0.00400
C837        C  0.13415331  0.92648783  0.57995991    -0.12100
C838        C  0.11788167  0.95377637  0.58833263     0.01800
H839        H  0.04271409  0.88638113  0.64726087     0.14800
H840        H  0.15976423  0.93798616  0.56112509     0.14800
C841        C  0.13933047  0.99880255  0.57649821     0.36500
C842        C  0.07452533  0.83547643  0.64711487     0.36400
N843        N  0.15679015  0.53568389  0.56883534    -0.43900
N844        N  0.06527637  0.80626908  0.66695257    -0.43900
C845        C  0.04197817  0.63877325  0.85458652    -0.00300
C846        C  0.04536222  0.64983556  0.81429624    -0.12100
C847        C  0.06971567  0.69527489  0.80675365     0.02000
C848        C  0.09186520  0.72986646  0.83988113    -0.00400
C849        C  0.08578486  0.71895826  0.87971488    -0.12100
C850        C  0.06067487  0.67401943  0.88726538     0.01800
H851        H  0.03129535  0.62313872  0.78904428     0.14800
H852        H  0.10162397  0.74570345  0.90510919     0.14800
C853        C  0.05581295  0.66489072  0.92910554     0.36500
C854        C  0.07207328  0.70583459  0.76515994     0.36400
N855        N  0.05195197  0.65720914  0.96252361    -0.43900
N856        N  0.07352819  0.71471658  0.73191558    -0.43900
C857        C  0.33768356  0.90373097  0.87530232    -0.00300
C858        C  0.30948150  0.87348980  0.90022486    -0.12100
C859        C  0.26385269  0.85328872  0.89118836     0.02000
C860        C  0.24553561  0.86362195  0.85672525    -0.00400
C861        C  0.27389497  0.89442648  0.83220437    -0.12100
C862        C  0.31945688  0.91445421  0.84115947     0.01800
H863        H  0.32323546  0.86610126  0.92719618     0.14800
H864        H  0.26037916  0.90320544  0.80610618     0.14800
C865        C  0.34698867  0.94815059  0.81636240     0.36500
C866        C  0.23683230  0.82382956  0.91895147     0.36400
N867        N  0.36906267  0.47518243  0.79653436    -0.43900
N868        N  0.21528672  0.80025560  0.94127826    -0.43900
C869        C  0.07512722  0.92569124  0.86777619    -0.00300
C870        C  0.08271428  0.92230944  0.82746302    -0.12100
C871        C  0.10350218  0.89993092  0.81692899     0.02000
C872        C  0.11738932  0.88126227  0.84715130    -0.00400
C873        C  0.11090675  0.88584408  0.88737307    -0.12100
C874        C  0.09048096  0.90806577  0.89797705     0.01800
H875        H  0.07222697  0.93689031  0.80427222     0.14800
H876        H  0.12193236  0.87179543  0.91074007     0.14800
C877        C  0.08860260  0.91459806  0.94072038     0.36500
C878        C  0.11036752  0.89648626  0.77525200     0.36400
N879        N  0.08888703  0.91992847  0.97543972    -0.43900
N880        N  0.11614736  0.89384585  0.74189261    -0.43900
C881        C  0.37955986  0.61543590  0.73481838    -0.00300
C882        C  0.35168132  0.56993896  0.71747013    -0.12100
C883        C  0.36752361  0.54252114  0.70960381     0.02000
C884        C  0.41281294  0.56061627  0.71728159    -0.00400
C885        C  0.44132552  0.60595775  0.73426085    -0.12100
C886        C  0.42503416  0.63299453  0.74434248     0.01800
H887        H  0.31688731  0.55524309  0.70922617     0.14800
H888        H  0.47625552  0.62004147  0.74014770     0.14800
C889        C  0.45535033  0.67742730  0.76619615     0.36500
C890        C  0.33637023  0.99628409  0.69193047     0.36400
N891        N  0.47972737  0.71290070  0.78402951    -0.43900
N892        N  0.31084587  0.95928265  0.67809306    -0.43900
C893        C  0.37261182  0.75506944  0.71848669    -0.00300
C894        C  0.36813250  0.78569706  0.74285745    -0.12100
C895        C  0.38404051  0.82992629  0.73338830     0.02000
C896        C  0.40566909  0.84485448  0.69909195    -0.00400
C897        C  0.40889810  0.81354223  0.67412251    -0.12100
C898        C  0.39247592  0.76925572  0.68321675     0.01800
H899        H  0.35212057  0.77498495  0.76958994     0.14800
H900        H  0.42464124  0.82362217  0.64718308     0.14800
C901        C  0.39487491  0.73869526  0.65474020     0.36500
C902        C  0.37716981  0.85876606  0.75926182     0.36400
N903        N  0.39677554  0.71434196  0.63174295    -0.43900
N904        N  0.37108119  0.88154301  0.77989696    -0.43900
C905        C  0.24241859  0.60798603  0.74065289    -0.00300
C906        C  0.21868239  0.61893727  0.76400778    -0.12100
C907        C  0.17263789  0.59281413  0.75726645     0.02000
C908        C  0.15001545  0.55444184  0.72764835    -0.00400
C909        C  0.17380807  0.54215107  0.70616503    -0.12100
C910        C  0.21937539  0.56927006  0.71119757     0.01800
H911        H  0.23608995  0.64872748  0.78646000     0.14800
H912        H  0.15656321  0.51374339  0.68215781     0.14800
C913        C  0.24077509  0.55970539  0.68182085     0.36500
C914        C  0.14920660  0.60634329  0.78029354     0.36400
N915        N  0.25690420  0.55196482  0.65726625    -0.43900
N916        N  0.13033984  0.61709067  0.79873144    -0.43900
C917        C  0.43128377  0.57251355  0.93479652    -0.00300
C918        C  0.41860243  0.59058172  0.90316705    -0.12100
C919        C  0.39413078  0.60957328  0.90963864     0.02000
C920        C  0.38185755  0.61056680  0.94828638    -0.00400
C921        C  0.39600688  0.59453307  0.48031752    -0.12100
C922        C  0.42036999  0.57542550  0.97386648     0.01800
H923        H  0.42677747  0.58871765  0.87295375     0.14800
H924        H  0.38782989  0.59690584  0.51038793     0.14800
C925        C  0.43100410  0.55646301  0.50717649     0.36500
C926        C  0.38125111  0.62700425  0.87605673     0.36400
N927        N  0.43904043  0.54091895  0.53401102    -0.43900
N928        N  0.37097541  0.64098732  0.84912824    -0.43900
C929        C  0.44042850  0.84546881  0.96810553    -0.00300
C930        C  0.39731935  0.81986076  0.94669503    -0.12100
C931        C  0.37056326  0.77345832  0.94850137     0.02000
C932        C  0.38632786  0.75194558  0.97328710    -0.00400
C933        C  0.42851631  0.77757291  0.49593977    -0.12100
C934        C  0.45578423  0.82364332  0.99312976     0.01800
H935        H  0.38480990  0.83567062  0.92704478     0.14800
H936        H  0.44079006  0.76104578  0.51487919     0.14800
C937        C  0.49956384  0.84644020  0.51532988     0.36500
C938        C  0.32857580  0.74850861  0.92218585     0.36400
N939        N  0.03464851  0.86327973  0.53306068    -0.43900
N940        N  0.29517054  0.72892620  0.90074086    -0.43900
C941        C  0.24459300  0.60577465  0.97044391    -0.00300
C942        C  0.22314776  0.62608606  0.95336210    -0.12100
C943        C  0.17822532  0.60649322  0.95174398     0.02000
C944        C  0.15236478  0.56345480  0.96504532    -0.00400
C945        C  0.17343079  0.54229235  0.98103628    -0.12100
C946        C  0.21915904  0.56362739  0.48529312     0.01800
H947        H  0.24155394  0.65774083  0.94074477     0.14800
H948        H  0.15420515  0.50914347  0.49085443     0.14800
C949        C  0.23883953  0.54235973  0.50671216     0.36500
C950        C  0.16025064  0.63158407  0.93510280     0.36400
N951        N  0.25428101  0.52517037  0.52420484    -0.43900
N952        N  0.14666786  0.65242619  0.92194675    -0.43900
C953        C  0.85852819  0.13265921  0.95734439     0.03000
C954        C  0.88201884  0.17966496  0.96231475    -0.13100
C955        C  0.86187810  0.20237734  0.97229573     0.00500
C956        C  0.81832949  0.17770131  0.97896153    -0.11700
C957        C  0.79309025  0.13014667  0.97164203     0.03000
C958        C  0.81380324  0.10767064  0.96099325    -0.11100
H959        H  0.91600446  0.19858976  0.95762828     0.08600
H960        H  0.80366178  0.19587678  0.98821771     0.06100
H961        H  0.79528806  0.07123984  0.95411836     0.06000
C962        C  0.85919956  0.14245760  0.24101785     0.03000
C963        C  0.87799555  0.18714228  0.23094045    -0.13100
C964        C  0.85379250  0.20803461  0.22930754     0.00500
C965        C  0.80988515  0.18288064  0.23567280    -0.11700
C966        C  0.79073967  0.13835236  0.24480448     0.03000
C967        C  0.81651592  0.12008521  0.25078342    -0.11100
H968        H  0.91057629  0.20512605  0.22289165     0.08600
H969        H  0.78983983  0.19702615  0.23099841     0.06100
H970        H  0.80138791  0.08614519  0.25937602     0.06000
C971        C  0.63523701  0.35324079  0.33808842     0.03000
C972        C  0.68077101  0.37198291  0.34455514    -0.13100
C973        C  0.69734064  0.34377237  0.34638887     0.00500
C974        C  0.66759660  0.29660244  0.34111367    -0.11700
C975        C  0.62214866  0.27783635  0.33481875     0.03000
C976        C  0.60626363  0.30622135  0.33276318    -0.11100
H977        H  0.70313246  0.40832956  0.35074047     0.08600
H978        H  0.67974693  0.27448653  0.34389830     0.06100
H979        H  0.57131543  0.29179280  0.33063277     0.06000
C980        C  0.63502330  0.35600564  0.08642337     0.03000
C981        C  0.60731615  0.30861699  0.08068181    -0.13100
C982        C  0.62471242  0.28160405  0.07859092     0.00500
C983        C  0.66944586  0.30202517  0.07583116    -0.11700
C984        C  0.69764037  0.34937023  0.08042033     0.03000
C985        C  0.67997819  0.37584926  0.08650754    -0.11100
H986        H  0.57257004  0.29266577  0.08123243     0.08600
H987        H  0.68228235  0.28078782  0.07214837     0.06100
H988        H  0.70171579  0.41219975  0.09331232     0.06000
O989        O  0.58050307  0.99605970  0.45735295    -0.80300
O990        O  0.93446644  0.02235762  0.38847942    -0.80300
O991        O  0.54873766  0.08772465  0.39248090    -0.80300
O992        O  0.94863439  0.47032755  0.49964723    -0.80200
O993        O  0.49623444  0.05741785  0.33955529    -0.80400
O994        O  0.51816867  0.49744570  0.49678367    -0.80300
O995        O  0.97341344  0.03928440  0.45029371    -0.80300
O996        O  0.58429869  0.05707405  0.44573511    -0.80300
C997        C  0.60367120  0.03835965  0.45835301     1.09400
C998        C  0.94871027  0.04454296  0.42402148     1.09300
C999        C  0.52699496  0.09211084  0.36301837     1.09500
C1000       C  0.98740424  0.48821776  0.01811924     1.09300
O1001       O  0.00879859  0.41725583  0.47445200    -0.80300
O1002       O  0.97893696  0.96733742  0.31770636    -0.80300
O1003       O  0.57685442  0.49369520  0.37923589    -0.80300
O1004       O  0.90292893  0.45043750  0.42306393    -0.80200
O1005       O  0.91086937  0.43142513  0.36288607    -0.80300
O1006       O  0.51955712  0.43053079  0.39430978    -0.80300
O1007       O  0.94950535  0.41272583  0.44400933    -0.80200
O1008       O  0.54474254  0.02951442  0.32567423    -0.80300
Co1009     Co  0.51504408  0.46292529  0.44180616     1.51500
Co1010     Co  0.95735115  0.99351618  0.35460569     1.51700
Co1011     Co  0.56095059  0.04044828  0.38727012     1.51600
Co1012     Co  0.96615779  0.47928612  0.44713922     1.51500
O1013       O  0.00089514  0.49678361  0.40101590    -1.42200
C1014       C  0.96771240  0.39405947  0.46280514     1.09400
C1015       C  0.01283779  0.49482279  0.30330156     1.09500
C1016       C  0.55497020  0.45079992  0.37922729     1.09400
C1017       C  0.88592783  0.42808198  0.38803606     1.09400
O1018       O  0.57943343  0.99060953  0.20073111    -0.80300
O1019       O  0.95748837  0.04680192  0.17891805    -0.80300
O1020       O  0.54915121  0.09146509  0.15657322    -0.80300
O1021       O  0.00093502  0.51647175  0.24038894    -0.80200
O1022       O  0.49529107  0.06888064  0.10848096    -0.80400
O1023       O  0.50896304  0.45841787  0.23971028    -0.80300
O1024       O  0.91649627  0.99494793  0.21720568    -0.80300
O1025       O  0.59105931  0.05863209  0.19861608    -0.80300
C1026       C  0.60349081  0.03323177  0.21074908     1.09400
C1027       C  0.93004147  0.03311787  0.20463170     1.09300
C1028       C  0.53083803  0.10114519  0.12849659     1.09500
C1029       C  0.01018884  0.49130887  0.25906798     1.09300
O1030       O  0.95212542  0.40372769  0.16210824    -0.80300
O1031       O  0.96437108  0.97801846  0.08234374    -0.80300
O1032       O  0.58275728  0.50483402  0.12627455    -0.80300
O1033       O  0.90473702  0.45030338  0.14333374    -0.80200
O1034       O  0.90834809  0.50133670  0.10497604    -0.80300
O1035       O  0.52198648  0.43950863  0.12443659    -0.80300
O1036       O  0.93053519  0.42479177  0.21109891    -0.80200
O1037       O  0.53399275  0.03156219  0.08148808    -0.80300
Co1038     Co  0.51435685  0.44959262  0.18017883     1.51500
Co1039     Co  0.96151828  0.00910763  0.13114450     1.51700
Co1040     Co  0.56120404  0.04501642  0.14200087     1.51600
Co1041     Co  0.95636290  0.48699060  0.19130772     1.51500
O1042       O  0.00523826  0.49794325  0.16133636    -1.42200
C1043       C  0.92877086  0.39288711  0.18975409     1.09400
C1044       C  0.99628243  0.49937891  0.06299429     1.09500
C1045       C  0.56083425  0.46216335  0.11795422     1.09400
C1046       C  0.88590458  0.46250225  0.11637164     1.09400
C1047       C  0.59930137  0.23475476  0.08960596    -0.00300
C1048       C  0.61728338  0.22529807  0.12429365    -0.12100
C1049       C  0.59498551  0.18309698  0.13844526     0.02000
C1050       C  0.55323536  0.14824850  0.11731603     0.01800
C1051       C  0.53450094  0.15823546  0.08321724    -0.12100
C1052       C  0.55687573  0.20117930  0.06959122     0.01800
H1053       H  0.64883393  0.25161372  0.14112670     0.14800
H1054       H  0.50248363  0.13241503  0.06688631     0.14800
C1055       C  0.53583429  0.20981709  0.03494810     0.36500
C1056       C  0.61637403  0.17739516  0.17495968     0.36400
N1057       N  0.51885757  0.21692609  0.00739563    -0.43900
N1058       N  0.63365707  0.17325786  0.20432247    -0.43900
C1059       C  0.74611046  0.37264222  0.08266551    -0.00300
C1060       C  0.76829304  0.41315405  0.06497287    -0.12100
C1061       C  0.81376613  0.44273433  0.07427924     0.02000
C1062       C  0.83872208  0.43062064  0.09978725    -0.00400
C1063       C  0.81695522  0.38785078  0.11377041    -0.12100
C1064       C  0.77127512  0.35946367  0.10647494     0.01800
H1065       H  0.74958522  0.42336492  0.04588697     0.14800
H1066       H  0.83542752  0.37754981  0.13308225     0.14800
C1067       C  0.75190363  0.31926184  0.12694016     0.36500
C1068       C  0.83254944  0.48660096  0.06016923     0.36400
N1069       N  0.73726270  0.28714835  0.14351957    -0.43900
N1070       N  0.84649777  0.02182530  0.04914742    -0.43900
C1071       C  0.58222392  0.43758632  0.10990886    -0.00300
C1072       C  0.56773811  0.39742253  0.12773897    -0.12100
C1073       C  0.58638152  0.37222392  0.12258817     0.02000
C1074       C  0.61783664  0.38482440  0.09607663    -0.00400
C1075       C  0.63414467  0.42649391  0.07995332    -0.12100
C1076       C  0.61786801  0.45378126  0.08830825     0.01800
H1077       H  0.54275308  0.38644517  0.14730511     0.14800
H1078       H  0.65974201  0.43797528  0.06110415     0.14800
C1079       C  0.63928531  0.49878651  0.07642727     0.36500
C1080       C  0.57456782  0.33554101  0.14717649     0.36400
N1081       N  0.65686500  0.03571395  0.06894199    -0.43900
N1082       N  0.56533151  0.30634752  0.16702906    -0.43900
C1083       C  0.54197291  0.13877598  0.35460575    -0.00300
C1084       C  0.54536110  0.14983587  0.31431483    -0.12100
C1085       C  0.56972159  0.19527412  0.30677142     0.02000
C1086       C  0.59187109  0.22986551  0.33989848    -0.00400
C1087       C  0.58578631  0.21896061  0.37973212    -0.12100
C1088       C  0.56067097  0.17402332  0.38728368     0.01800
H1089       H  0.53129313  0.12313806  0.28906380     0.14800
H1090       H  0.60162629  0.24570707  0.40512557     0.14800
C1091       C  0.55580593  0.16489731  0.42912413     0.36500
C1092       C  0.57208992  0.20583367  0.26517791     0.36400
N1093       N  0.55194235  0.15721848  0.46254257    -0.43900
N1094       N  0.57355589  0.21471785  0.23193434    -0.43900
C1095       C  0.83768692  0.40371834  0.37528253    -0.00300
C1096       C  0.80949479  0.37349954  0.40022420    -0.12100
C1097       C  0.76386648  0.35330068  0.39119905     0.02000
C1098       C  0.74554063  0.36361113  0.35672599    -0.00400
C1099       C  0.77388913  0.39438924  0.33218277    -0.12100
C1100       C  0.81945113  0.41441890  0.34112921     0.01800
H1101       H  0.82325675  0.36613043  0.42720346     0.14800
H1102       H  0.76036501  0.40314982  0.30607652     0.14800
C1103       C  0.84697249  0.44810149  0.31631664     0.36500
C1104       C  0.73685774  0.32387125  0.41898470     0.36400
N1105       N  0.86908956  0.97524112  0.29659313    -0.43900
N1106       N  0.71532508  0.30032308  0.44133254    -0.43900
C1107       C  0.57512002  0.42567294  0.36776603    -0.00300
C1108       C  0.58274118  0.42231919  0.32746157    -0.12100
C1109       C  0.60353575  0.39994576  0.31693461     0.02000
C1110       C  0.61739796  0.38125696  0.34715604    -0.00400
C1111       C  0.61088117  0.38581003  0.38736975    -0.12100
C1112       C  0.59044702  0.40802473  0.39796668     0.01800
H1113       H  0.57227432  0.43691705  0.30427173     0.14800
H1114       H  0.62188686  0.37174455  0.41073601     0.14800
C1115       C  0.58853910  0.41453166  0.44070576     0.36500
C1116       C  0.61042808  0.39652100  0.27526472     0.36400
N1117       N  0.58880345  0.41984265  0.47542325    -0.43900
N1118       N  0.61622882  0.39389430  0.24191116    -0.43900
C1119       C  0.87956955  0.11545278  0.23481842    -0.00300
C1120       C  0.85169235  0.06995044  0.21748603    -0.12100
C1121       C  0.86753826  0.04253377  0.20962929     0.02000
C1122       C  0.91282948  0.06063514  0.21729999    -0.00400
C1123       C  0.94134025  0.10598233  0.23426502    -0.12100
C1124       C  0.92504540  0.13301836  0.24433800     0.01800
H1125       H  0.81689668  0.05524956  0.20924743     0.14800
H1126       H  0.97627131  0.12007096  0.24014837     0.14800
C1127       C  0.95535881  0.17745784  0.26618062     0.36500
C1128       C  0.83635484  0.49627767  0.19188835     0.36400
N1129       N  0.97973189  0.21293648  0.28400612    -0.43900
N1130       N  0.81083012  0.45928113  0.17803764    -0.43900
C1131       C  0.87260114  0.25506656  0.21844438    -0.00300
C1132       C  0.86813446  0.28569891  0.24282116    -0.12100
C1133       C  0.88404537  0.32992739  0.23335250     0.02000
C1134       C  0.90566297  0.34484982  0.19904984    -0.00400
C1135       C  0.90888006  0.31353339  0.17407368    -0.12100
C1136       C  0.89245366  0.26924593  0.18316755     0.01800
H1137       H  0.85213273  0.27499195  0.26955995     0.14800
H1138       H  0.92461591  0.32361063  0.14712973     0.14800
C1139       C  0.89483293  0.23867668  0.15468382     0.36500
C1140       C  0.87719656  0.35877608  0.25923808     0.36400
N1141       N  0.89671550  0.21431557  0.13167979    -0.43900
N1142       N  0.87112914  0.38156357  0.27988307    -0.43900
C1143       C  0.74243002  0.10799919  0.24066656    -0.00300
C1144       C  0.71869451  0.11894708  0.26402566    -0.12100
C1145       C  0.67264988  0.09281899  0.25728932     0.02000
C1146       C  0.65002741  0.05444482  0.22767248    -0.00400
C1147       C  0.67382071  0.04215894  0.20618450    -0.12100
C1148       C  0.71938744  0.06928340  0.21121182     0.01800
H1149       H  0.73610229  0.14873873  0.28647643     0.14800
H1150       H  0.65657614  0.01375137  0.18217749     0.14800
C1151       C  0.74078820  0.05972561  0.18183124     0.36500
C1152       C  0.64921897  0.10634663  0.28031893     0.36400
N1153       N  0.75692250  0.05199434  0.15727581    -0.43900
N1154       N  0.63035394  0.11709426  0.29875931    -0.43900
C1155       C  0.93129254  0.07252692  0.43481827    -0.00300
C1156       C  0.91859156  0.09057498  0.40318372    -0.12100
C1157       C  0.89411800  0.10956378  0.40965611     0.02000
C1158       C  0.88186689  0.11057924  0.44831091    -0.00400
C1159       C  0.89604195  0.09457335  0.98034785    -0.12100
C1160       C  0.92040252  0.07546333  0.47389494     0.01800
H1161       H  0.92674933  0.08869381  0.37296555     0.14800
H1162       H  0.88788105  0.09696274  0.01042284     0.14800
C1163       C  0.93104766  0.05651245  0.00720815     0.36500
C1164       C  0.88121254  0.12696827  0.37606804     0.36400
N1165       N  0.93908844  0.04097236  0.03404352    -0.43900
N1166       N  0.87091570  0.14092999  0.34913495    -0.43900
C1167       C  0.94041629  0.34546507  0.46808636    -0.00300
C1168       C  0.89731421  0.31985417  0.44666015    -0.12100
C1169       C  0.87055538  0.27345327  0.44847158     0.02000
C1170       C  0.88631304  0.25194531  0.47327256    -0.00400
C1171       C  0.92849343  0.27757550  0.99593970    -0.12100
C1172       C  0.95576176  0.32364503  0.49313035     0.01800
H1173       H  0.88481206  0.33566113  0.42699712     0.14800
H1174       H  0.94075966  0.26105168  0.01489334     0.14800
C1175       C  0.99952861  0.34644852  0.01535977     0.36500
C1176       C  0.82857076  0.24850116  0.42215160     0.36400
N1177       N  0.53460204  0.36329203  0.03311787    -0.43900
N1178       N  0.79516676  0.22891776  0.40070466    -0.43900
C1179       C  0.74458972  0.10577311  0.47043369    -0.00300
C1180       C  0.72314044  0.12605837  0.45330070    -0.12100
C1181       C  0.67821894  0.10647076  0.45168168     0.02000
C1182       C  0.65236614  0.06346635  0.46504721    -0.00400
C1183       C  0.67343654  0.04232718  0.48108724    -0.12100
C1184       C  0.71916325  0.06365495  0.98533074     0.01800
H1185       H  0.74154483  0.15768874  0.44064486     0.14800
H1186       H  0.65421528  0.00920139  0.99094825     0.14800
C1187       C  0.73885122  0.04240914  0.00677744     0.36500
C1188       C  0.66023677  0.13152693  0.43496837     0.36400
N1189       N  0.75429929  0.02523661  0.02428968    -0.43900
N1190       N  0.64665076  0.15234342  0.42175272    -0.43900
C1191       C  0.85852818  0.13265914  0.45734454     0.03000
C1192       C  0.88201885  0.17966490  0.46231491    -0.13100
C1193       C  0.86187809  0.20237729  0.47229592     0.00500
C1194       C  0.81832952  0.17770124  0.47896174    -0.11700
C1195       C  0.79309026  0.13014663  0.47164224     0.03000
C1196       C  0.81380325  0.10767058  0.46099344    -0.11100
H1197       H  0.91600437  0.19858965  0.45762841     0.08600
H1198       H  0.80366170  0.19587683  0.48821798     0.06100
H1199       H  0.79528806  0.07123980  0.45411854     0.06000
C1200       C  0.85919953  0.14245758  0.74101783     0.03000
C1201       C  0.87799551  0.18714226  0.73094044    -0.13100
C1202       C  0.85379241  0.20803457  0.72930749     0.00500
C1203       C  0.80988508  0.18288056  0.73567272    -0.11700
C1204       C  0.79073961  0.13835230  0.74480442     0.03000
C1205       C  0.81651589  0.12008517  0.75078338    -0.11100
H1206       H  0.91057621  0.20512603  0.72289169     0.08600
H1207       H  0.78983960  0.19702614  0.73099828     0.06100
H1208       H  0.80138788  0.08614514  0.75937599     0.06000
C1209       C  0.63523705  0.35324085  0.83808842     0.03000
C1210       C  0.68077107  0.37198297  0.84455512    -0.13100
C1211       C  0.69734068  0.34377242  0.84638875     0.00500
C1212       C  0.66759664  0.29660250  0.84111348    -0.11700
C1213       C  0.62214869  0.27783642  0.83481860     0.03000
C1214       C  0.60626370  0.30622144  0.83276312    -0.11100
H1215       H  0.70313250  0.40832960  0.85074050     0.08600
H1216       H  0.67974697  0.27448657  0.84389806     0.06100
H1217       H  0.57131530  0.29179280  0.83063272     0.06000
C1218       C  0.63502332  0.35600561  0.58642334     0.03000
C1219       C  0.60731612  0.30861694  0.58068181    -0.13100
C1220       C  0.62471242  0.28160399  0.57859091     0.00500
C1221       C  0.66944583  0.30202510  0.57583112    -0.11700
C1222       C  0.69764036  0.34937015  0.58042026     0.03000
C1223       C  0.67997818  0.37584920  0.58650747    -0.11100
H1224       H  0.57257021  0.29266581  0.58123246     0.08600
H1225       H  0.68228237  0.28078764  0.57214832     0.06100
H1226       H  0.70171581  0.41219972  0.59331224     0.06000
O1227       O  0.58050306  0.99605972  0.95735293    -0.80300
O1228       O  0.93446651  0.02235772  0.88847940    -0.80300
O1229       O  0.54873772  0.08772476  0.89248087    -0.80300
O1230       O  0.94863445  0.47032767  0.99964724    -0.80200
O1231       O  0.49623448  0.05741795  0.83955527    -0.80400
O1232       O  0.51816875  0.49744583  0.99678368    -0.80300
O1233       O  0.97341347  0.03928446  0.95029372    -0.80300
O1234       O  0.58429867  0.05707406  0.94573512    -0.80300
C1235       C  0.60367119  0.03835966  0.95835302     1.09400
C1236       C  0.94871032  0.04454305  0.92402147     1.09300
C1237       C  0.52699503  0.09211094  0.86301833     1.09500
C1238       C  0.98740418  0.48821767  0.51811924     1.09300
O1239       O  0.00879863  0.41725589  0.97445203    -0.80300
O1240       O  0.97893697  0.96733746  0.81770636    -0.80300
O1241       O  0.57685443  0.49369521  0.87923590    -0.80300
O1242       O  0.90292895  0.45043756  0.92306393    -0.80200
O1243       O  0.91086940  0.43142516  0.86288608    -0.80300
O1244       O  0.51955714  0.43053082  0.89430984    -0.80300
O1245       O  0.94950539  0.41272592  0.94400936    -0.80200
O1246       O  0.54474256  0.02951449  0.82567422    -0.80300
Co1247     Co  0.51504412  0.46292537  0.94180620     1.51500
Co1248     Co  0.95735119  0.99351627  0.85460568     1.51700
Co1249     Co  0.56095060  0.04044834  0.88727011     1.51600
Co1250     Co  0.96615783  0.47928620  0.94713922     1.51500
O1251       O  0.00089517  0.49678364  0.90101590    -1.42200
C1252       C  0.96771243  0.39405954  0.96280516     1.09400
C1253       C  0.01283779  0.49482279  0.80330156     1.09500
C1254       C  0.55497021  0.45079993  0.87922734     1.09400
C1255       C  0.88592786  0.42808203  0.88803605     1.09400
O1256       O  0.57943339  0.99060948  0.70073113    -0.80300
O1257       O  0.95748837  0.04680191  0.67891808    -0.80300
O1258       O  0.54915117  0.09146504  0.65657322    -0.80300
O1259       O  0.00093503  0.51647177  0.74038895    -0.80200
O1260       O  0.49529103  0.06888061  0.60848097    -0.80400
O1261       O  0.50896297  0.45841783  0.73971026    -0.80300
O1262       O  0.91649620  0.99494788  0.71720564    -0.80300
O1263       O  0.59105927  0.05863204  0.69861608    -0.80300
C1264       C  0.60349077  0.03323171  0.71074909     1.09400
C1265       C  0.93004144  0.03311785  0.70463171     1.09300
C1266       C  0.53083800  0.10114515  0.62849660     1.09500
C1267       C  0.01018883  0.49130887  0.75906798     1.09300
O1268       O  0.95212535  0.40372769  0.66210826    -0.80300
O1269       O  0.96437099  0.97801848  0.58234372    -0.80300
O1270       O  0.58275723  0.50483394  0.62627454    -0.80300
O1271       O  0.90473698  0.45030340  0.64333380    -0.80200
O1272       O  0.90834804  0.50133668  0.60497605    -0.80300
O1273       O  0.52198644  0.43950853  0.62443659    -0.80300
O1274       O  0.93053514  0.42479178  0.71109894    -0.80200
O1275       O  0.53399270  0.03156213  0.58148808    -0.80300
Co1276     Co  0.51435678  0.44959256  0.68017881     1.51500
Co1277     Co  0.96151823  0.00910762  0.63114451     1.51700
Co1278     Co  0.56120400  0.04501636  0.64200087     1.51600
Co1279     Co  0.95636289  0.48699062  0.69130775     1.51500
O1280       O  0.00523822  0.49794322  0.66133636    -1.42200
C1281       C  0.92877080  0.39288711  0.68975412     1.09400
C1282       C  0.99628236  0.49937884  0.56299428     1.09500
C1283       C  0.56083421  0.46216327  0.61795422     1.09400
C1284       C  0.88590454  0.46250225  0.61637169     1.09400
C1285       C  0.59930133  0.23475469  0.58960596    -0.00300
C1286       C  0.61728337  0.22529805  0.62429369    -0.12100
C1287       C  0.59498544  0.18309693  0.63844530     0.02000
C1288       C  0.55323533  0.14824846  0.61731604     0.01800
C1289       C  0.53450093  0.15823541  0.58321723    -0.12100
C1290       C  0.55687571  0.20117924  0.56959122     0.01800
H1291       H  0.64883367  0.25161351  0.64112663     0.14800
H1292       H  0.50248361  0.13241496  0.56688629     0.14800
C1293       C  0.53583423  0.20981706  0.53494815     0.36500
C1294       C  0.61637391  0.17739515  0.67495980     0.36400
N1295       N  0.51885746  0.21692606  0.50739573    -0.43900
N1296       N  0.63365687  0.17325788  0.70432265    -0.43900
C1297       C  0.74611044  0.37264213  0.58266545    -0.00300
C1298       C  0.76829302  0.41315396  0.56497278    -0.12100
C1299       C  0.81376611  0.44273427  0.57427922     0.02000
C1300       C  0.83872204  0.43062062  0.59978729    -0.00400
C1301       C  0.81695519  0.38785077  0.61377049    -0.12100
C1302       C  0.77127508  0.35946362  0.60647494     0.01800
H1303       H  0.74958527  0.42336477  0.54588690     0.14800
H1304       H  0.83542746  0.37754984  0.63308235     0.14800
C1305       C  0.75190358  0.31926180  0.62694018     0.36500
C1306       C  0.83254941  0.48660090  0.56016921     0.36400
N1307       N  0.73726261  0.28714831  0.64351958    -0.43900
N1308       N  0.84649756  0.02182512  0.54914724    -0.43900
C1309       C  0.58222391  0.43758626  0.60990886    -0.00300
C1310       C  0.56773812  0.39742247  0.62773897    -0.12100
C1311       C  0.58638156  0.37222389  0.62258818     0.02000
C1312       C  0.61783667  0.38482437  0.59607664    -0.00400
C1313       C  0.63414470  0.42649389  0.57995334    -0.12100
C1314       C  0.61786803  0.45378124  0.58830828     0.01800
H1315       H  0.54275309  0.38644510  0.64730509     0.14800
H1316       H  0.65974204  0.43797527  0.56110420     0.14800
C1317       C  0.63928538  0.49878653  0.57642739     0.36500
C1318       C  0.57456789  0.33554099  0.64717652     0.36400
N1319       N  0.65686509  0.03571398  0.56894212    -0.43900
N1320       N  0.56533160  0.30634751  0.66702910    -0.43900
C1321       C  0.54197298  0.13877607  0.85460565    -0.00300
C1322       C  0.54536121  0.14983595  0.81431473    -0.12100
C1323       C  0.56972165  0.19527418  0.80677129     0.02000
C1324       C  0.59187113  0.22986559  0.83989834    -0.00400
C1325       C  0.58578632  0.21896072  0.87973199    -0.12100
C1326       C  0.56067098  0.17402343  0.88728356     0.01800
H1327       H  0.53129318  0.12313800  0.78906360     0.14800
H1328       H  0.60162623  0.24570715  0.90512538     0.14800
C1329       C  0.55580588  0.16489744  0.92912400     0.36500
C1330       C  0.57208994  0.20583376  0.76517779     0.36400
N1331       N  0.55194224  0.15721862  0.96254243    -0.43900
N1332       N  0.57355587  0.21471800  0.73193424    -0.43900
C1333       C  0.83768696  0.40371839  0.87528251    -0.00300
C1334       C  0.80949480  0.37349956  0.90022413    -0.12100
C1335       C  0.76386649  0.35330069  0.89119895     0.02000
C1336       C  0.74554067  0.36361117  0.85672588    -0.00400
C1337       C  0.77388919  0.39438930  0.83218270    -0.12100
C1338       C  0.81945118  0.41441898  0.84112917     0.01800
H1339       H  0.82325676  0.36613041  0.92720342     0.14800
H1340       H  0.76036507  0.40314991  0.80607642     0.14800
C1341       C  0.84697258  0.44810161  0.81631665     0.36500
C1342       C  0.73685775  0.32387125  0.91898458     0.36400
N1343       N  0.86908957  0.97524127  0.79659311    -0.43900
N1344       N  0.71532512  0.30032308  0.94133245    -0.43900
C1345       C  0.57512002  0.42567294  0.86776606    -0.00300
C1346       C  0.58274117  0.42231919  0.82746160    -0.12100
C1347       C  0.60353577  0.39994579  0.81693464     0.02000
C1348       C  0.61739801  0.38125701  0.84715606    -0.00400
C1349       C  0.61088121  0.38581006  0.88736977    -0.12100
C1350       C  0.59044703  0.40802472  0.89796671     0.01800
H1351       H  0.57227431  0.43691703  0.80427178     0.14800
H1352       H  0.62188691  0.37174459  0.91073601     0.14800
C1353       C  0.58853906  0.41453159  0.94070578     0.36500
C1354       C  0.61042810  0.39652103  0.77526474     0.36400
N1355       N  0.58880339  0.41984250  0.97542328    -0.43900
N1356       N  0.61622886  0.39389432  0.74191120    -0.43900
C1357       C  0.87956951  0.11545276  0.73481838    -0.00300
C1358       C  0.85169237  0.06995046  0.71748598    -0.12100
C1359       C  0.86753822  0.04253376  0.70962924     0.02000
C1360       C  0.91282945  0.06063513  0.71729999    -0.00400
C1361       C  0.94134022  0.10598230  0.73426503    -0.12100
C1362       C  0.92504538  0.13301835  0.74433799     0.01800
H1363       H  0.81689632  0.05524944  0.70924726     0.14800
H1364       H  0.97627133  0.12007095  0.74014842     0.14800
C1365       C  0.95535879  0.17745782  0.76618061     0.36500
C1366       C  0.83635482  0.49627770  0.69188836     0.36400
N1367       N  0.97973190  0.21293646  0.78400612    -0.43900
N1368       N  0.81083008  0.45928116  0.67803766    -0.43900
C1369       C  0.87260107  0.25506652  0.71844436    -0.00300
C1370       C  0.86813432  0.28569884  0.74282112    -0.12100
C1371       C  0.88404524  0.32992734  0.73335249     0.02000
C1372       C  0.90566292  0.34484982  0.69904986    -0.00400
C1373       C  0.90888007  0.31353342  0.67407374    -0.12100
C1374       C  0.89245366  0.26924594  0.68316757     0.01800
H1375       H  0.85213253  0.27499184  0.76955988     0.14800
H1376       H  0.92461598  0.32361070  0.64712980     0.14800
C1377       C  0.89483300  0.23867673  0.65468387     0.36500
C1378       C  0.87719637  0.35877598  0.75923806     0.36400
N1379       N  0.89671561  0.21431565  0.63167985    -0.43900
N1380       N  0.87112887  0.38156339  0.77988306    -0.43900
C1381       C  0.74242997  0.10799911  0.74066653    -0.00300
C1382       C  0.71869447  0.11894701  0.76402566    -0.12100
C1383       C  0.67264985  0.09281892  0.75728932     0.02000
C1384       C  0.65002737  0.05444476  0.72767248    -0.00400
C1385       C  0.67382065  0.04215886  0.70618450    -0.12100
C1386       C  0.71938738  0.06928332  0.71121180     0.01800
H1387       H  0.73610224  0.14873861  0.78647639     0.14800
H1388       H  0.65657609  0.01375132  0.68217751     0.14800
C1389       C  0.74078813  0.05972555  0.68183120     0.36500
C1390       C  0.64921896  0.10634658  0.78031894     0.36400
N1391       N  0.75692244  0.05199431  0.65727575    -0.43900
N1392       N  0.63035395  0.11709424  0.79875933    -0.43900
C1393       C  0.93129258  0.07252700  0.93481823    -0.00300
C1394       C  0.91859157  0.09057502  0.90318365    -0.12100
C1395       C  0.89411801  0.10956381  0.90965602     0.02000
C1396       C  0.88186691  0.11057932  0.94831081    -0.00400
C1397       C  0.89604191  0.09457324  0.48034792    -0.12100
C1398       C  0.92040255  0.07546344  0.97389489     0.01800
H1399       H  0.92674932  0.08869382  0.87296550     0.14800
H1400       H  0.88788101  0.09696261  0.51042297     0.14800
C1401       C  0.93104767  0.05651238  0.50720820     0.36500
C1402       C  0.88121251  0.12696826  0.87606793     0.36400
N1403       N  0.93908850  0.04097232  0.53404357    -0.43900
N1404       N  0.87091562  0.14092997  0.84913486    -0.43900
C1405       C  0.94041633  0.34546514  0.96808634    -0.00300
C1406       C  0.89731425  0.31985427  0.94666005    -0.12100
C1407       C  0.87055542  0.27345334  0.94847145     0.02000
C1408       C  0.88631304  0.25194537  0.97327240    -0.00400
C1409       C  0.92849343  0.27757548  0.49593979    -0.12100
C1410       C  0.95576175  0.32364508  0.99313031     0.01800
H1411       H  0.88481220  0.33566116  0.92699714     0.14800
H1412       H  0.94075977  0.26105157  0.51489355     0.14800
C1413       C  0.99952866  0.34644849  0.51535971     0.36500
C1414       C  0.82857081  0.24850126  0.92215145     0.36400
N1415       N  0.53460210  0.36329199  0.53311772    -0.43900
N1416       N  0.79516681  0.22891784  0.90070451    -0.43900
C1417       C  0.74458970  0.10577314  0.97043355    -0.00300
C1418       C  0.72314040  0.12605844  0.95330064    -0.12100
C1419       C  0.67821890  0.10647081  0.95168174     0.02000
C1420       C  0.65236614  0.06346640  0.96504722    -0.00400
C1421       C  0.67343655  0.04232718  0.98108718    -0.12100
C1422       C  0.71916320  0.06365489  0.48533086     0.01800
H1423       H  0.74154466  0.15768866  0.94064487     0.14800
H1424       H  0.65421510  0.00920113  0.49094840     0.14800
C1425       C  0.73885114  0.04240905  0.50677756     0.36500
C1426       C  0.66023672  0.13152704  0.93496860     0.36400
N1427       N  0.75429914  0.02523646  0.52428980    -0.43900
N1428       N  0.64665067  0.15234354  0.92175309    -0.43900
C1429       C  0.85852471  0.63265300  0.95732374     0.03000
C1430       C  0.88202226  0.67965938  0.96230634    -0.13100
C1431       C  0.86188962  0.70237537  0.97230470     0.00500
C1432       C  0.81834317  0.67770086  0.97897897    -0.11700
C1433       C  0.79309453  0.63014619  0.97164391     0.03000
C1434       C  0.81380026  0.60766855  0.96097435    -0.11100
H1435       H  0.91600674  0.69858170  0.95761719     0.08600
H1436       H  0.80368581  0.69587997  0.98825508     0.06100
H1437       H  0.79528094  0.57123934  0.95408574     0.06000
C1438       C  0.85919255  0.64244233  0.24102726     0.03000
C1439       C  0.87799852  0.68713669  0.23097265    -0.13100
C1440       C  0.85379798  0.70803238  0.22934163     0.00500
C1441       C  0.80988446  0.68287284  0.23568851    -0.11700
C1442       C  0.79072990  0.63833604  0.24479936     0.03000
C1443       C  0.81650205  0.62006424  0.25077649    -0.11100
H1444       H  0.91058488  0.70512549  0.22293685     0.08600
H1445       H  0.78984208  0.69702171  0.23101507     0.06100
H1446       H  0.80136739  0.58611864  0.25935617     0.06000
C1447       C  0.63522709  0.85324493  0.33808025     0.03000
C1448       C  0.68076151  0.87198811  0.34454740    -0.13100
C1449       C  0.69733378  0.84377976  0.34637786     0.00500
C1450       C  0.66758969  0.79660871  0.34109501    -0.11700
C1451       C  0.62214069  0.77783998  0.33480258     0.03000
C1452       C  0.60625434  0.80622468  0.33275290    -0.11100
H1453       H  0.70312167  0.90833488  0.35073717     0.08600
H1454       H  0.67974078  0.77449319  0.34387432     0.06100
H1455       H  0.57130635  0.79179518  0.33062482     0.06000
C1456       C  0.63502573  0.85599025  0.08639384     0.03000
C1457       C  0.60732514  0.80860069  0.08063748    -0.13100
C1458       C  0.62472970  0.78159439  0.07855100     0.00500
C1459       C  0.66946793  0.80202559  0.07580835    -0.11700
C1460       C  0.69765550  0.84937142  0.08040843     0.03000
C1461       C  0.67998393  0.87584209  0.08649139    -0.11100
H1462       H  0.57257651  0.79264248  0.08117529     0.08600
H1463       H  0.68231399  0.78079549  0.07213266     0.06100
H1464       H  0.70171774  0.91219217  0.09330602     0.06000
O1465       O  0.58049874  0.49604554  0.45733526    -0.80300
O1466       O  0.93446751  0.52235361  0.38845500    -0.80300
O1467       O  0.54874757  0.58771984  0.39245591    -0.80300
O1468       O  0.94863757  0.97033451  0.49967201    -0.80200
O1469       O  0.49623928  0.55741442  0.33953392    -0.80400
O1470       O  0.51817033  0.99744489  0.49680556    -0.80300
O1471       O  0.97341163  0.53927852  0.45027079    -0.80300
O1472       O  0.58429887  0.55706057  0.44571122    -0.80300
C1473       C  0.60366881  0.53834541  0.45833529     1.09400
C1474       C  0.94870756  0.54453581  0.42399841     1.09300
C1475       C  0.52700211  0.59210696  0.36299644     1.09500
C1476       C  0.98740721  0.98821854  0.01814254     1.09300
O1477       O  0.00880982  0.91726139  0.47446529    -0.80300
O1478       O  0.97893562  0.46732976  0.31768267    -0.80300
O1479       O  0.57686131  0.99371287  0.37925741    -0.80300
O1480       O  0.90292733  0.95044121  0.42308894    -0.80200
O1481       O  0.91086696  0.93142915  0.36291056    -0.80300
O1482       O  0.51956391  0.93054391  0.39432420    -0.80300
O1483       O  0.94951062  0.91273135  0.44403631    -0.80200
O1484       O  0.54474237  0.52950304  0.32564814    -0.80300
Co1485     Co  0.51504785  0.96293128  0.44182440     1.51500
Co1486     Co  0.95735295  0.49351171  0.35458221     1.51700
Co1487     Co  0.56095125  0.54043616  0.38724572     1.51600
Co1488     Co  0.96615891  0.97929160  0.44716319     1.51500
O1489       O  0.00089510  0.99679001  0.40103913    -1.42200
C1490       C  0.96772221  0.89406470  0.46282486     1.09400
C1491       C  0.01284109  0.99483210  0.30332794     1.09500
C1492       C  0.55497746  0.95081669  0.37924279     1.09400
C1493       C  0.88592499  0.92808694  0.38806022     1.09400
O1494       O  0.57942368  0.49061082  0.20070062    -0.80300
O1495       O  0.95746972  0.54678925  0.17889276    -0.80300
O1496       O  0.54913151  0.59146296  0.15655485    -0.80300
O1497       O  0.00095138  0.01648342  0.24041415    -0.80200
O1498       O  0.49527682  0.56887867  0.10845686    -0.80400
O1499       O  0.50897121  0.95842484  0.23974181    -0.80300
O1500       O  0.91647707  0.49492784  0.21717524    -0.80300
O1501       O  0.59104874  0.55863435  0.19859396    -0.80300
C1502       C  0.60348010  0.53323219  0.21072296     1.09400
C1503       C  0.93002273  0.53310014  0.20460625     1.09300
C1504       C  0.53082452  0.60114316  0.12847285     1.09500
C1505       C  0.01019864  0.99131803  0.25909615     1.09300
O1506       O  0.95213100  0.90372993  0.16214680    -0.80300
O1507       O  0.96436490  0.47801766  0.08231840    -0.80300
O1508       O  0.58276197  0.00481832  0.12629947    -0.80300
O1509       O  0.90474755  0.95031722  0.14336534    -0.80200
O1510       O  0.90836448  0.00135049  0.10500286    -0.80300
O1511       O  0.52199273  0.93949389  0.12447248    -0.80300
O1512       O  0.93054129  0.92480014  0.21113397    -0.80200
O1513       O  0.53398412  0.53157031  0.08146497    -0.80300
Co1514     Co  0.51436457  0.94959220  0.18021261     1.51500
Co1515     Co  0.96150586  0.50910223  0.13111834     1.51700
Co1516     Co  0.56119393  0.54502353  0.14197861     1.51600
Co1517     Co  0.95637585  0.98700016  0.19133683     1.51500
O1518       O  0.00524728  0.99794255  0.16136221    -1.42200
C1519       C  0.92877656  0.89289244  0.18979314     1.09400
C1520       C  0.99628808  0.99937620  0.06301818     1.09500
C1521       C  0.56083799  0.96214668  0.11798166     1.09400
C1522       C  0.88591818  0.96251820  0.11640179     1.09400
C1523       C  0.59931904  0.73474175  0.08955975    -0.00300
C1524       C  0.61729474  0.72528419  0.12425139    -0.12100
C1525       C  0.59498585  0.68308860  0.13841176     0.02000
C1526       C  0.55323434  0.64824262  0.11728221     0.01800
C1527       C  0.53451033  0.65822712  0.08317378    -0.12100
C1528       C  0.55689296  0.70116845  0.06954366     0.01800
H1529       H  0.64884499  0.75159855  0.14108636     0.14800
H1530       H  0.50249326  0.63240830  0.06684155     0.14800
C1531       C  0.53585519  0.70980853  0.03489945     0.36500
C1532       C  0.61636011  0.67739438  0.17494149     0.36400
N1533       N  0.51888097  0.71692059  0.00734727    -0.43900
N1534       N  0.63363294  0.67326743  0.20431802    -0.43900
C1535       C  0.74612749  0.87265215  0.08267229    -0.00300
C1536       C  0.76831258  0.91316424  0.06498060    -0.12100
C1537       C  0.81378453  0.94274817  0.07429655     0.02000
C1538       C  0.83873638  0.93063903  0.09981690    -0.00400
C1539       C  0.81696733  0.88787245  0.11380563    -0.12100
C1540       C  0.77128857  0.85948056  0.10649739     0.01800
H1541       H  0.74960682  0.92337033  0.04588507     0.14800
H1542       H  0.83543629  0.87757552  0.13312810     0.14800
C1543       C  0.75191405  0.81927895  0.12696268     0.36500
C1544       C  0.83257013  0.98661059  0.06017692     0.36400
N1545       N  0.73727416  0.78716635  0.14354325    -0.43900
N1546       N  0.84647738  0.52182038  0.04915022    -0.43900
C1547       C  0.58222039  0.93756437  0.10991361    -0.00300
C1548       C  0.56771239  0.89737626  0.12770804    -0.12100
C1549       C  0.58635513  0.87217794  0.12254690     0.02000
C1550       C  0.61782929  0.88480022  0.09605272    -0.00400
C1551       C  0.63415326  0.92648783  0.07995988    -0.12100
C1552       C  0.61788161  0.95377638  0.08833258     0.01800
H1553       H  0.54271428  0.88638131  0.14726083     0.14800
H1554       H  0.65976407  0.93798609  0.06112509     0.14800
C1555       C  0.63933038  0.99880253  0.07649810     0.36500
C1556       C  0.57452533  0.83547651  0.14711495     0.36400
N1557       N  0.65678997  0.53568383  0.06883515    -0.43900
N1558       N  0.56527638  0.80626916  0.16695264    -0.43900
C1559       C  0.54197816  0.63877324  0.35458658    -0.00300
C1560       C  0.54536226  0.64983556  0.31429630    -0.12100
C1561       C  0.56971574  0.69527488  0.30675371     0.02000
C1562       C  0.59186519  0.72986645  0.33988119    -0.00400
C1563       C  0.58578485  0.71895826  0.37971495    -0.12100
C1564       C  0.56067487  0.67401942  0.38726545     0.01800
H1565       H  0.53129543  0.62313872  0.28904436     0.14800
H1566       H  0.60162391  0.74570339  0.40510919     0.14800
C1567       C  0.55581304  0.66489073  0.42910562     0.36500
C1568       C  0.57207350  0.70583458  0.26516001     0.36400
N1569       N  0.55195216  0.65720917  0.46252371    -0.43900
N1570       N  0.57352854  0.71471656  0.23191565    -0.43900
C1571       C  0.83768353  0.90373088  0.37530238    -0.00300
C1572       C  0.80948148  0.87348970  0.40022494    -0.12100
C1573       C  0.76385265  0.85328864  0.39118842     0.02000
C1574       C  0.74553559  0.86362191  0.35672535    -0.00400
C1575       C  0.77389495  0.89442644  0.33220447    -0.12100
C1576       C  0.81945686  0.91445413  0.34115954     0.01800
H1577       H  0.82323538  0.86610117  0.42719615     0.14800
H1578       H  0.76037918  0.90320540  0.30610635     0.14800
C1579       C  0.84698864  0.94815047  0.31636245     0.36500
C1580       C  0.73683225  0.82382938  0.41895149     0.36400
N1581       N  0.86906253  0.47518228  0.29653431    -0.43900
N1582       N  0.71528666  0.80025533  0.44127821    -0.43900
C1583       C  0.57512727  0.92569124  0.36777621    -0.00300
C1584       C  0.58271430  0.92230945  0.32746303    -0.12100
C1585       C  0.60350219  0.89993091  0.31692899     0.02000
C1586       C  0.61738932  0.88126226  0.34715129    -0.00400
C1587       C  0.61090679  0.88584408  0.38737309    -0.12100
C1588       C  0.59048100  0.90806578  0.39797705     0.01800
H1589       H  0.57222700  0.93689029  0.30427227     0.14800
H1590       H  0.62193235  0.87179549  0.41073997     0.14800
C1591       C  0.58860263  0.91459806  0.44072039     0.36500
C1592       C  0.61036750  0.89648625  0.27525199     0.36400
N1593       N  0.58888704  0.91992845  0.47543973    -0.43900
N1594       N  0.61614733  0.89384585  0.24189259    -0.43900
C1595       C  0.87955988  0.61543588  0.23481838    -0.00300
C1596       C  0.85168134  0.56993895  0.21747009    -0.12100
C1597       C  0.86752362  0.54252112  0.20960380     0.02000
C1598       C  0.91281295  0.56061622  0.21728162    -0.00400
C1599       C  0.94132552  0.60595768  0.23426093    -0.12100
C1600       C  0.92503418  0.63299447  0.24434256     0.01800
H1601       H  0.81688737  0.55524312  0.20922610     0.14800
H1602       H  0.97625558  0.62004141  0.24014783     0.14800
C1603       C  0.95535030  0.67742718  0.26619634     0.36500
C1604       C  0.83637028  0.99628405  0.19193059     0.36400
N1605       N  0.97972728  0.71290053  0.28402981    -0.43900
N1606       N  0.81084595  0.95928259  0.17809323    -0.43900
C1607       C  0.87261198  0.75506953  0.21848682    -0.00300
C1608       C  0.86813266  0.78569715  0.24285756    -0.12100
C1609       C  0.88404065  0.82992637  0.23338836     0.02000
C1610       C  0.90566921  0.84485454  0.19909200    -0.00400
C1611       C  0.90889824  0.81354229  0.17412260    -0.12100
C1612       C  0.89247607  0.76925579  0.18321687     0.01800
H1613       H  0.85212074  0.77498506  0.26959006     0.14800
H1614       H  0.92464137  0.82362221  0.14718317     0.14800
C1615       C  0.89487499  0.73869529  0.15474029     0.36500
C1616       C  0.87716993  0.85876616  0.25926186     0.36400
N1617       N  0.89677554  0.71434196  0.13174302    -0.43900
N1618       N  0.87108131  0.88154312  0.27989698    -0.43900
C1619       C  0.74241867  0.60798611  0.24065293    -0.00300
C1620       C  0.71868246  0.61893734  0.26400783    -0.12100
C1621       C  0.67263795  0.59281418  0.25726646     0.02000
C1622       C  0.65001554  0.55444192  0.22764837    -0.00400
C1623       C  0.67380815  0.54215115  0.20616502    -0.12100
C1624       C  0.71937549  0.56927018  0.21119759     0.01800
H1625       H  0.73608998  0.64872747  0.28646004     0.14800
H1626       H  0.65656338  0.51374362  0.18215790     0.14800
C1627       C  0.74077519  0.55970555  0.18182083     0.36500
C1628       C  0.64920665  0.60634333  0.28029355     0.36400
N1629       N  0.75690431  0.55196503  0.15726621    -0.43900
N1630       N  0.63033984  0.61709067  0.29873142    -0.43900
C1631       C  0.93128371  0.57251345  0.43479659    -0.00300
C1632       C  0.91860242  0.59058166  0.40316709    -0.12100
C1633       C  0.89413081  0.60957328  0.40963873     0.02000
C1634       C  0.88185758  0.61056680  0.44828645    -0.00400
C1635       C  0.89600693  0.59453313  0.98031748    -0.12100
C1636       C  0.92036991  0.57542536  0.47386652     0.01800
H1637       H  0.92677741  0.58871762  0.37295400     0.14800
H1638       H  0.88782996  0.59690593  0.01038794     0.14800
C1639       C  0.93100425  0.55646318  0.00717649     0.36500
C1640       C  0.88125120  0.62700430  0.37605681     0.36400
N1641       N  0.93904064  0.54091919  0.03401104    -0.43900
N1642       N  0.87097556  0.64098739  0.34912830    -0.43900
C1643       C  0.94042848  0.84546882  0.46810565    -0.00300
C1644       C  0.89731933  0.81986076  0.44669517    -0.12100
C1645       C  0.87056325  0.77345832  0.44850149     0.02000
C1646       C  0.88632786  0.75194559  0.47328723    -0.00400
C1647       C  0.92851633  0.77757296  0.99593971    -0.12100
C1648       C  0.95578422  0.82364334  0.49312989     0.01800
H1649       H  0.88480986  0.83567065  0.42704487     0.14800
H1650       H  0.94079012  0.76104579  0.01487921     0.14800
C1651       C  0.99956384  0.84644026  0.01532984     0.36500
C1652       C  0.82857582  0.74850861  0.42218593     0.36400
N1653       N  0.53464846  0.86327975  0.03306069    -0.43900
N1654       N  0.79517058  0.72892617  0.40074089    -0.43900
C1655       C  0.74459300  0.60577463  0.47044384    -0.00300
C1656       C  0.72314773  0.62608594  0.45336194    -0.12100
C1657       C  0.67822532  0.60649317  0.45174378     0.02000
C1658       C  0.65236477  0.56345479  0.46504527    -0.00400
C1659       C  0.67343079  0.54229241  0.48103634    -0.12100
C1660       C  0.71915906  0.56362743  0.98529306     0.01800
H1661       H  0.74155412  0.65774101  0.44074441     0.14800
H1662       H  0.65420520  0.50914355  0.99085431     0.14800
C1663       C  0.73883953  0.54235975  0.00671211     0.36500
C1664       C  0.66025060  0.63158389  0.43510240     0.36400
N1665       N  0.75428099  0.52517038  0.02420481    -0.43900
N1666       N  0.64666781  0.65242595  0.42194617    -0.43900
C1667       C  0.85852475  0.63265302  0.45732383     0.03000
C1668       C  0.88202226  0.67965938  0.46230648    -0.13100
C1669       C  0.86188963  0.70237537  0.47230480     0.00500
C1670       C  0.81834312  0.67770082  0.47897899    -0.11700
C1671       C  0.79309451  0.63014616  0.47164391     0.03000
C1672       C  0.81380027  0.60766855  0.46097439    -0.11100
H1673       H  0.91600696  0.69858183  0.45761735     0.08600
H1674       H  0.80368573  0.69587992  0.48825506     0.06100
H1675       H  0.79528095  0.57123929  0.45408577     0.06000
C1676       C  0.85919247  0.64244230  0.74102729     0.03000
C1677       C  0.87799844  0.68713667  0.73097266    -0.13100
C1678       C  0.85379783  0.70803230  0.72934157     0.00500
C1679       C  0.80988433  0.68287274  0.73568840    -0.11700
C1680       C  0.79072977  0.63833598  0.74479929     0.03000
C1681       C  0.81650196  0.62006419  0.75077648    -0.11100
H1682       H  0.91058465  0.70512540  0.72293694     0.08600
H1683       H  0.78984182  0.69702166  0.73101488     0.06100
H1684       H  0.80136733  0.58611866  0.75935618     0.06000
C1685       C  0.63522710  0.85324497  0.83808023     0.03000
C1686       C  0.68076157  0.87198819  0.84454740    -0.13100
C1687       C  0.69733381  0.84377980  0.84637778     0.00500
C1688       C  0.66758974  0.79660876  0.84109489    -0.11700
C1689       C  0.62214069  0.77784002  0.83480244     0.03000
C1690       C  0.60625441  0.80622475  0.83275281    -0.11100
H1691       H  0.70312161  0.90833477  0.85073718     0.08600
H1692       H  0.67974081  0.77449325  0.84387418     0.06100
H1693       H  0.57130612  0.79179513  0.83062469     0.06000
C1694       C  0.63502574  0.85599022  0.58639378     0.03000
C1695       C  0.60732515  0.80860065  0.58063740    -0.13100
C1696       C  0.62472966  0.78159435  0.57855095     0.00500
C1697       C  0.66946792  0.80202548  0.57580832    -0.11700
C1698       C  0.69765548  0.84937135  0.58040837     0.03000
C1699       C  0.67998394  0.87584201  0.58649130    -0.11100
H1700       H  0.57257646  0.79264244  0.58117521     0.08600
H1701       H  0.68231383  0.78079559  0.57213269     0.06100
H1702       H  0.70171781  0.91219216  0.59330593     0.06000
O1703       O  0.58049878  0.49604559  0.95733528    -0.80300
O1704       O  0.93446753  0.52235363  0.88845497    -0.80300
O1705       O  0.54874765  0.58771992  0.89245586    -0.80300
O1706       O  0.94863762  0.97033455  0.99967203    -0.80200
O1707       O  0.49623933  0.55741447  0.83953389    -0.80400
O1708       O  0.51817036  0.99744494  0.99680555    -0.80300
O1709       O  0.97341167  0.53927860  0.95027076    -0.80300
O1710       O  0.58429891  0.55706061  0.94571120    -0.80300
C1711       C  0.60366885  0.53834545  0.95833530     1.09400
C1712       C  0.94870759  0.54453586  0.92399837     1.09300
C1713       C  0.52700217  0.59210701  0.86299639     1.09500
C1714       C  0.98740715  0.98821852  0.51814254     1.09300
O1715       O  0.00880981  0.91726140  0.97446523    -0.80300
O1716       O  0.97893563  0.46732975  0.81768268    -0.80300
O1717       O  0.57686129  0.99371289  0.87925740    -0.80300
O1718       O  0.90292736  0.95044130  0.92308894    -0.80200
O1719       O  0.91086699  0.93142926  0.86291056    -0.80300
O1720       O  0.51956387  0.93054394  0.89432418    -0.80300
O1721       O  0.94951062  0.91273139  0.94403627    -0.80200
O1722       O  0.54474241  0.52950305  0.82564812    -0.80300
Co1723     Co  0.51504785  0.96293133  0.94182439     1.51500
Co1724     Co  0.95735297  0.49351173  0.85458220     1.51700
Co1725     Co  0.56095130  0.54043620  0.88724570     1.51600
Co1726     Co  0.96615893  0.97929165  0.94716318     1.51500
O1727       O  0.00089513  0.99679008  0.90103912    -1.42200
C1728       C  0.96772221  0.89406471  0.96282478     1.09400
C1729       C  0.01284109  0.99483213  0.80332792     1.09500
C1730       C  0.55497742  0.95081671  0.87924277     1.09400
C1731       C  0.88592502  0.92808706  0.88806021     1.09400
O1732       O  0.57942358  0.49061075  0.70070062    -0.80300
O1733       O  0.95746970  0.54678927  0.67889275    -0.80300
O1734       O  0.54913149  0.59146291  0.65655477    -0.80300
O1735       O  0.00095132  0.01648340  0.74041412    -0.80200
O1736       O  0.49527679  0.56887861  0.60845680    -0.80400
O1737       O  0.50897118  0.95842486  0.73974183    -0.80300
O1738       O  0.91647709  0.49492792  0.71717527    -0.80300
O1739       O  0.59104868  0.55863430  0.69859392    -0.80300
C1740       C  0.60348000  0.53323212  0.71072296     1.09400
C1741       C  0.93002273  0.53310019  0.70460625     1.09300
C1742       C  0.53082449  0.60114311  0.62847279     1.09500
C1743       C  0.01019861  0.99131804  0.75909613     1.09300
O1744       O  0.95213094  0.90372988  0.66214680    -0.80300
O1745       O  0.96436483  0.47801761  0.58231840    -0.80300
O1746       O  0.58276193  0.00481825  0.62629947    -0.80300
O1747       O  0.90474751  0.95031719  0.64336530    -0.80200
O1748       O  0.90836440  0.00135050  0.60500291    -0.80300
O1749       O  0.52199272  0.93949380  0.62447252    -0.80300
O1750       O  0.93054123  0.92480010  0.71113396    -0.80200
O1751       O  0.53398406  0.53157019  0.58146494    -0.80300
Co1752     Co  0.51436454  0.94959215  0.68021264     1.51500
Co1753     Co  0.96150581  0.50910221  0.63111833     1.51700
Co1754     Co  0.56119388  0.54502345  0.64197857     1.51600
Co1755     Co  0.95637579  0.98700012  0.69133680     1.51500
O1756       O  0.00524721  0.99794251  0.66136219    -1.42200
C1757       C  0.92877651  0.89289239  0.68979314     1.09400
C1758       C  0.99628801  0.99937619  0.56301817     1.09500
C1759       C  0.56083798  0.96214662  0.61798169     1.09400
C1760       C  0.88591813  0.96251818  0.61640180     1.09400
C1761       C  0.59931901  0.73474171  0.58955973    -0.00300
C1762       C  0.61729464  0.72528417  0.62425142    -0.12100
C1763       C  0.59498575  0.68308859  0.63841179     0.02000
C1764       C  0.55323427  0.64824257  0.61728215     0.01800
C1765       C  0.53451033  0.65822708  0.58317370    -0.12100
C1766       C  0.55689293  0.70116838  0.56954358     0.01800
H1767       H  0.64884495  0.75159863  0.64108648     0.14800
H1768       H  0.50249310  0.63240807  0.56684132     0.14800
C1769       C  0.53585520  0.70980849  0.53489937     0.36500
C1770       C  0.61635991  0.67739441  0.67494161     0.36400
N1771       N  0.51888100  0.71692057  0.50734719    -0.43900
N1772       N  0.63363268  0.67326750  0.70431821    -0.43900
C1773       C  0.74612746  0.87265201  0.58267222    -0.00300
C1774       C  0.76831252  0.91316407  0.56498045    -0.12100
C1775       C  0.81378448  0.94274805  0.57429646     0.02000
C1776       C  0.83873632  0.93063899  0.59981687    -0.00400
C1777       C  0.81696731  0.88787241  0.61380568    -0.12100
C1778       C  0.77128853  0.85948050  0.60649738     0.01800
H1779       H  0.74960684  0.92337005  0.54588496     0.14800
H1780       H  0.83543616  0.87757560  0.63312808     0.14800
C1781       C  0.75191404  0.81927891  0.62696272     0.36500
C1782       C  0.83257002  0.98661045  0.56017678     0.36400
N1783       N  0.73727417  0.78716632  0.64354331    -0.43900
N1784       N  0.84647735  0.52182033  0.54915023    -0.43900
C1785       C  0.58222038  0.93756431  0.60991363    -0.00300
C1786       C  0.56771242  0.89737620  0.62770799    -0.12100
C1787       C  0.58635514  0.87217789  0.62254687     0.02000
C1788       C  0.61782933  0.88480020  0.59605268    -0.00400
C1789       C  0.63415330  0.92648784  0.57995990    -0.12100
C1790       C  0.61788166  0.95377637  0.58833262     0.01800
H1791       H  0.54271410  0.88638114  0.64726092     0.14800
H1792       H  0.65976423  0.93798616  0.56112506     0.14800
C1793       C  0.63933044  0.99880255  0.57649819     0.36500
C1794       C  0.57452537  0.83547646  0.64711490     0.36400
N1795       N  0.65679010  0.53568387  0.56883534    -0.43900
N1796       N  0.56527644  0.80626911  0.66695259    -0.43900
C1797       C  0.54197819  0.63877329  0.85458650    -0.00300
C1798       C  0.54536221  0.64983559  0.81429621    -0.12100
C1799       C  0.56971566  0.69527491  0.80675360     0.02000
C1800       C  0.59186522  0.72986650  0.83988109    -0.00400
C1801       C  0.58578492  0.71895830  0.87971482    -0.12100
C1802       C  0.56067494  0.67401950  0.88726536     0.01800
H1803       H  0.53129530  0.62313872  0.78904426     0.14800
H1804       H  0.60162413  0.74570362  0.90510923     0.14800
C1805       C  0.55581300  0.66489080  0.92910551     0.36500
C1806       C  0.57207324  0.70583459  0.76515989     0.36400
N1807       N  0.55195202  0.65720925  0.96252359    -0.43900
N1808       N  0.57352812  0.71471655  0.73191552    -0.43900
C1809       C  0.83768356  0.90373101  0.87530235    -0.00300
C1810       C  0.80948151  0.87348987  0.90022494    -0.12100
C1811       C  0.76385269  0.85328878  0.89118839     0.02000
C1812       C  0.74553562  0.86362196  0.85672527    -0.00400
C1813       C  0.77389497  0.89442646  0.83220435    -0.12100
C1814       C  0.81945690  0.91445421  0.84115948     0.01800
H1815       H  0.82323541  0.86610140  0.92719617     0.14800
H1816       H  0.76037922  0.90320535  0.80610626     0.14800
C1817       C  0.84698868  0.94815058  0.81636241     0.36500
C1818       C  0.73683229  0.82382960  0.91895150     0.36400
N1819       N  0.86906265  0.47518243  0.79653437    -0.43900
N1820       N  0.71528670  0.80025562  0.94127827    -0.43900
C1821       C  0.57512723  0.92569124  0.86777620    -0.00300
C1822       C  0.58271425  0.92230943  0.82746302    -0.12100
C1823       C  0.60350217  0.89993092  0.81692899     0.02000
C1824       C  0.61738935  0.88126232  0.84715129    -0.00400
C1825       C  0.61090683  0.88584416  0.88737309    -0.12100
C1826       C  0.59048101  0.90806582  0.89797705     0.01800
H1827       H  0.57222691  0.93689024  0.80427224     0.14800
H1828       H  0.62193245  0.87179559  0.91074000     0.14800
C1829       C  0.58860265  0.91459810  0.94072039     0.36500
C1830       C  0.61036748  0.89648626  0.77525198     0.36400
N1831       N  0.58888706  0.91992849  0.97543973    -0.43900
N1832       N  0.61614732  0.89384585  0.74189259    -0.43900
C1833       C  0.87955984  0.61543588  0.73481842    -0.00300
C1834       C  0.85168130  0.56993895  0.71747013    -0.12100
C1835       C  0.86752360  0.54252115  0.70960380     0.02000
C1836       C  0.91281293  0.56061627  0.71728160    -0.00400
C1837       C  0.94132550  0.60595774  0.73426090    -0.12100
C1838       C  0.92503413  0.63299450  0.74434256     0.01800
H1839       H  0.81688733  0.55524310  0.70922617     0.14800
H1840       H  0.97625551  0.62004146  0.74014778     0.14800
C1841       C  0.95535027  0.67742723  0.76619631     0.36500
C1842       C  0.83637027  0.99628407  0.69193048     0.36400
N1843       N  0.97972728  0.71290059  0.78402975    -0.43900
N1844       N  0.81084595  0.95928262  0.67809307    -0.43900
C1845       C  0.87261185  0.75506945  0.71848677    -0.00300
C1846       C  0.86813249  0.78569707  0.74285747    -0.12100
C1847       C  0.88404051  0.82992629  0.73338831     0.02000
C1848       C  0.90566914  0.84485449  0.69909199    -0.00400
C1849       C  0.90889822  0.81354225  0.67412261    -0.12100
C1850       C  0.89247604  0.76925575  0.68321687     0.01800
H1851       H  0.85212047  0.77498493  0.76959000     0.14800
H1852       H  0.92464144  0.82362222  0.64718318     0.14800
C1853       C  0.89487507  0.73869528  0.65474035     0.36500
C1854       C  0.87716979  0.85876607  0.75926180     0.36400
N1855       N  0.89677571  0.71434196  0.63174315    -0.43900
N1856       N  0.87108115  0.88154302  0.77989693    -0.43900
C1857       C  0.74241856  0.60798603  0.74065290    -0.00300
C1858       C  0.71868236  0.61893724  0.76400781    -0.12100
C1859       C  0.67263786  0.59281409  0.75726648     0.02000
C1860       C  0.65001543  0.55444183  0.72764837    -0.00400
C1861       C  0.67380804  0.54215107  0.70616502    -0.12100
C1862       C  0.71937537  0.56927008  0.71119756     0.01800
H1863       H  0.73608992  0.64872744  0.78646006     0.14800
H1864       H  0.65656324  0.51374350  0.68215787     0.14800
C1865       C  0.74077506  0.55970540  0.68182084     0.36500
C1866       C  0.64920657  0.60634324  0.78029359     0.36400
N1867       N  0.75690417  0.55196483  0.65726624    -0.43900
N1868       N  0.63033982  0.61709061  0.79873150    -0.43900
C1869       C  0.93128372  0.57251349  0.93479652    -0.00300
C1870       C  0.91860238  0.59058164  0.90316702    -0.12100
C1871       C  0.89413077  0.60957326  0.90963864     0.02000
C1872       C  0.88185755  0.61056679  0.94828636    -0.00400
C1873       C  0.89600691  0.59453308  0.48031755    -0.12100
C1874       C  0.92036996  0.57542546  0.97386647     0.01800
H1875       H  0.92677738  0.58871757  0.87295381     0.14800
H1876       H  0.88782991  0.59690584  0.51038800     0.14800
C1877       C  0.93100409  0.55646298  0.50717650     0.36500
C1878       C  0.88125122  0.62700435  0.87605674     0.36400
N1879       N  0.93904040  0.54091891  0.53401104    -0.43900
N1880       N  0.87097566  0.64098754  0.84912827    -0.43900
C1881       C  0.94042850  0.84546881  0.96810550    -0.00300
C1882       C  0.89731935  0.81986075  0.94669501    -0.12100
C1883       C  0.87056326  0.77345832  0.94850134     0.02000
C1884       C  0.88632788  0.75194559  0.97328709    -0.00400
C1885       C  0.92851631  0.77757296  0.49593988    -0.12100
C1886       C  0.95578424  0.82364333  0.99312974     0.01800
H1887       H  0.88480987  0.83567065  0.92704469     0.14800
H1888       H  0.94079007  0.76104583  0.51487934     0.14800
C1889       C  0.99956386  0.84644024  0.51532992     0.36500
C1890       C  0.82857580  0.74850861  0.92218585     0.36400
N1891       N  0.53464847  0.86327971  0.53306068    -0.43900
N1892       N  0.79517052  0.72892620  0.90074087    -0.43900
C1893       C  0.74459301  0.60577465  0.97044389    -0.00300
C1894       C  0.72314779  0.62608609  0.95336206    -0.12100
C1895       C  0.67822534  0.60649325  0.95174396     0.02000
C1896       C  0.65236480  0.56345485  0.96504530    -0.00400
C1897       C  0.67343079  0.54229238  0.98103628    -0.12100
C1898       C  0.71915903  0.56362741  0.48529310     0.01800
H1899       H  0.74155392  0.65774075  0.94074476     0.14800
H1900       H  0.65420508  0.50914342  0.49085451     0.14800
C1901       C  0.73883952  0.54235976  0.50671215     0.36500
C1902       C  0.66025069  0.63158411  0.93510277     0.36400
N1903       N  0.75428098  0.52517038  0.52420485    -0.43900
N1904       N  0.64666794  0.65242627  0.92194671    -0.43900
loop_ 
_geom_bond_atom_site_label_1 
_geom_bond_atom_site_label_2 
_geom_bond_distance 
_geom_bond_site_symmetry_2 
_ccdc_geom_bond_type 
C1            C2   1.391       .  A
C1            C6   1.405       .  A
C1          C444   1.469       .  S
C2            C3   1.394       .  A
C2            H7   1.085       .  S
C3            C4   1.397       .  A
C3          C456   1.474       .  S
C4            C5   1.409       .  A
C4            H8   1.083       .  S
C5            C6   1.411       .  A
C5          C465   1.495       .  S
C6            H9   1.083       .  S
C10          C11   1.415       .  A
C10          C15   1.406       .  A
C10         C167   1.505       .  S
C11          C12   1.416       .  A
C11          H16   1.081       .  S
C12          C13   1.405       .  A
C12         C179   1.496       .  S
C13          C14   1.399       .  A
C13          H17   1.084       .  S
C14          C15   1.396       .  A
C14         C191   1.482       .  S
C15          H18   1.084       .  S
C19          C20   1.408       .  A
C19          C24   1.400       .  A
C19         C158   1.478       .  S
C20          C21   1.411       .  A
C20          H25   1.084       .  S
C21          C22   1.408       .  A
C21         C146   1.496       .  S
C22          C23   1.405       .  A
C22          H26   1.084       .  S
C23          C24   1.397       .  A
C23         C134   1.476       .  S
C24          H27   1.084       .  S
C28          C29   1.406       .  A
C28          C33   1.399       .  A
C28         C122   1.489       .  S
C29          C30   1.399       .  A
C29          H34   1.082       .  S
C30          C31   1.406       .  A
C30          C95   1.487       .  S
C31          C32   1.406       .  A
C31          H35   1.082       .  S
C32          C33   1.405       .  A
C32         C107   1.492       .  S
C33          H36   1.083       .  S
O37          C45   1.258   1_565  A
O37        Co533   2.010       .  S
O38          C46   1.274       .  A
O38         Co58   1.999   1_545  S
O39          C47   1.257       .  A
O39         Co59   1.944       .  S
O40         C286   1.265       .  A
O40         Co60   1.901       .  S
O41          C47   1.275   1_655  A
O41       Co1010   2.043   1_545  S
O42        C1238   1.293   1_455  A
O42         Co57   2.104       .  S
O43          C46   1.274       .  A
O43        Co536   1.980   1_545  S
O44          C45   1.249       .  A
O44         Co59   1.958       .  S
C45         C230   1.487       .  S
C46         C203   1.479       .  S
C47         C131   1.480       .  S
C48          C92   1.477       .  S
C48         O278   1.265   1_554  A
C48        O1232   1.293   1_554  A
O49          C62   1.267       .  A
O49       Co1009   1.902       .  S
O50         C539   1.260       .  A
O50         Co58   1.963       .  S
O51          C64   1.278       .  A
O51        Co535   2.031       .  S
O52          C65   1.264       .  A
O52         Co60   2.005       .  S
O53          C65   1.264       .  A
O53        Co534   1.984       .  S
O54          C64   1.272       .  A
O54         Co57   1.977       .  S
O55          C62   1.292       .  A
O55         Co60   2.078       .  S
O56        C1491   1.271   1_545  A
O56         Co59   2.023       .  S
Co57        O513   2.010       .  S
Co57       O1001   1.902       .  S
Co57       O1013   2.037       .  S
Co58        O993   2.043   1_565  S
Co58        O529   1.984       .  S
Co58        O537   2.039       .  S
Co59        O527   2.031   1_545  S
Co59       O1489   2.016   1_545  S
Co60        O519   1.980       .  S
Co60         O61   1.999       .  S
O61       Co1009   2.037       .  S
O61        Co534   2.039       .  S
O61       Co1487   2.016       .  S
C62         C215   1.483       .  S
C63          C77   1.454       .  S
C63         O526   1.260       .  A
C63        O1484   1.271       .  A
C64         C155   1.480       .  S
C65         C143   1.487       .  S
O66          C74   1.274   1_565  A
O66        Co562   2.024       .  S
O67          C75   1.292       .  A
O67         Co87   2.090       .  S
O68          C76   1.249       .  A
O68         Co88   1.960       .  S
O69          C77   1.265       .  A
O69         Co89   1.961       .  S
O70          C76   1.261   1_655  A
O70       Co1039   2.022       .  S
O71        C1029   1.276       .  A
O71         Co86   2.031       .  S
O72          C75   1.268   1_565  A
O72        Co565   1.901       .  S
O73          C74   1.260       .  A
O73         Co88   1.963       .  S
C74         C194   1.470       .  S
C75         C170   1.476       .  S
C76          C98   1.494       .  S
C77        O1023   1.276       .  A
O78          C91   1.251       .  A
O78       Co1038   1.959       .  S
O79         C568   1.267       .  A
O79         Co87   1.957   1_565  S
O80          C93   1.269       .  A
O80        Co564   2.025       .  S
O81          C94   1.291       .  A
O81         Co89   2.079       .  S
O82          C94   1.266       .  A
O82        Co563   1.906       .  S
O83          C93   1.253       .  A
O83         Co86   1.944       .  S
O84          C91   1.269       .  A
O84         Co89   2.043       .  S
O85        C1520   1.284   1_445  A
O85         Co88   2.053       .  S
Co86        O542   2.024       .  S
Co86       O1030   1.959   1_455  S
Co86       O1042   2.011       .  S
Co87       O1022   2.022       .  S
Co87        O558   1.905       .  S
Co87        O566   2.012   1_545  S
Co88        O556   2.025       .  S
Co88       O1518   2.025   1_545  S
Co89        O548   1.901       .  S
Co89         O90   2.001       .  S
O90       Co1038   2.011       .  S
O90        Co563   2.012       .  S
O90       Co1516   2.025       .  S
C91         C182   1.500       .  S
C92         O555   1.267       .  A
C92        O1513   1.284       .  A
C93         C119   1.474       .  S
C94         C110   1.486       .  S
C95          C96   1.400       .  A
C95         C100   1.412       .  A
C96          C97   1.395       .  A
C96         H101   1.084       .  S
C97          C98   1.421       .  A
C97         C104   1.447       .  S
C98          C99   1.410       .  A
C99         C100   1.407       .  A
C99         H102   1.083       .  S
C100        C103   1.443       .  S
C103        N105   1.157       .  T
C104        N106   1.158       .  T
C107        C108   1.407       .  A
C107        C112   1.416       .  A
C108        C109   1.398       .  A
C108        H113   1.086       .  S
C109        C110   1.414       .  A
C109        C116   1.441       .  S
C110        C111   1.407       .  A
C111        C112   1.397       .  A
C111        H114   1.086       .  S
C112        C115   1.444       .  S
C115        N117   1.157       .  T
C116        N594   1.156       .  T
N118        C592   1.156   1_545  T
C119        C120   1.404       .  A
C119        C124   1.407       .  A
C120        C121   1.390       .  A
C120        H125   1.085       .  S
C121        C122   1.414       .  A
C121        C128   1.446       .  S
C122        C123   1.414       .  A
C123        C124   1.404       .  A
C123        H126   1.083       .  S
C124        C127   1.442       .  S
C127        N605   1.157       .  T
C128        N130   1.157       .  T
N129        C603   1.157   1_545  T
C131        C132   1.407       .  A
C131        C136   1.414       .  A
C132        C133   1.407       .  A
C132        H137   1.083       .  S
C133        C134   1.409       .  A
C133        C140   1.443       .  S
C134        C135   1.399       .  A
C135        C136   1.395       .  A
C135        H138   1.084       .  S
C136        C139   1.445       .  S
C139        N141   1.157       .  T
C140        N142   1.157       .  T
C143        C144   1.403       .  A
C143        C148   1.415       .  A
C144        C145   1.406       .  A
C144        H149   1.085       .  S
C145        C146   1.417       .  A
C145        C152   1.444       .  S
C146        C147   1.404       .  A
C147        C148   1.405       .  A
C147        H150   1.085       .  S
C148        C151   1.445       .  S
C151        N629   1.157       .  T
C152        N154   1.157       .  T
N153        C627   1.157       .  T
C155        C156   1.407       .  A
C155        C160   1.414       .  A
C156        C157   1.410       .  A
C156        H161   1.085       .  S
C157        C158   1.411       .  A
C157        C164   1.442       .  S
C158        C159   1.397       .  A
C159        C160   1.394       .  A
C159        H162   1.087       .  S
C160        C163   1.440       .  S
C163        N165   1.156       .  T
C164        N166   1.157       .  T
C167        C168   1.411       .  A
C167        C172   1.418       .  A
C168        C169   1.392       .  A
C168        H173   1.080       .  S
C169        C170   1.405       .  A
C169        C652   1.446   1_545  S
C170        C171   1.405       .  A
C171        C172   1.410       .  A
C171        H174   1.083       .  S
C172        C175   1.443       .  S
C175        N177   1.157       .  T
C176        C645   1.446       .  S
C176        N178   1.157       .  T
C179        C180   1.408       .  A
C179        C184   1.411       .  A
C180        C181   1.407       .  A
C180        H185   1.084       .  S
C181        C182   1.413       .  A
C181        C188   1.439       .  S
C182        C183   1.412       .  A
C183        C184   1.402       .  A
C183        H186   1.084       .  S
C184        C187   1.445       .  S
C187        N189   1.157       .  T
C188        N190   1.156       .  T
C191        C192   1.405       .  A
C191        C196   1.416       .  A
C192        C193   1.405       .  A
C192        H197   1.085       .  S
C193        C194   1.411       .  A
C193        C200   1.444       .  S
C194        C195   1.399       .  A
C195        C196   1.392       .  A
C195        H198   1.087       .  S
C196        C199   1.445       .  S
C199        N201   1.157       .  T
C200        N202   1.157       .  T
C203        C204   1.407       .  A
C203        C208   1.411       .  A
C204        C205   1.398       .  A
C204        H209   1.085       .  S
C205        C206   1.407       .  A
C205        C212   1.444       .  S
C206        C445   1.397       .  A
C206        C239   1.469       .  S
C207        C444   1.397       .  A
C207        C446   1.397       .  A
C207        H210   1.083   1_556  S
C208        C445   1.397       .  A
C208        C449   1.435       .  S
C211        C446   1.435   1_554  S
C211        N213   1.153       .  T
C212        N214   1.157       .  T
C215        C216   1.407       .  A
C215        C220   1.415       .  A
C216        C217   1.396       .  A
C216        H221   1.085       .  S
C217        C218   1.411       .  A
C217        C224   1.445       .  S
C218        C457   1.399       .  A
C218        C241   1.474       .  S
C219        C456   1.399       .  A
C219        C458   1.394       .  A
C219        H222   1.086   1_556  S
C220        C457   1.394       .  A
C220        C461   1.436       .  S
C223        C458   1.436   1_554  S
C223       N1177   1.154       .  T
C224        N226   1.157       .  T
N225       C1175   1.154   1_455  T
C227        C228   1.405       .  A
C227        C470   1.415       .  A
C227        C243   1.495       .  S
C228        C229   1.392       .  A
C228        H233   1.083       .  S
C229        C230   1.416       .  A
C229        C236   1.446       .  S
C230        C231   1.407       .  A
C231        C470   1.404       .  A
C231        H472   1.082       .  S
C232        C465   1.415       .  A
C232        C469   1.404       .  A
C232        C235   1.444   1_556  S
H234        C469   1.082       .  S
C235        N237   1.157       .  T
C236        N238   1.157       .  T
C239        C240   1.391       .  A
C239        C244   1.405       .  A
C240        C241   1.394       .  A
C240        H245   1.085       .  S
C241        C242   1.397       .  A
C242        C243   1.409       .  A
C242        H246   1.083       .  S
C243        C244   1.411       .  A
C244        H247   1.083       .  S
C248        C249   1.415       .  A
C248        C253   1.406       .  A
C248        C405   1.505       .  S
C249        C250   1.416       .  A
C249        H254   1.081       .  S
C250        C251   1.405       .  A
C250        C417   1.496       .  S
C251        C252   1.399       .  A
C251        H255   1.084       .  S
C252        C253   1.396       .  A
C252        C429   1.482       .  S
C253        H256   1.084       .  S
C257        C258   1.408       .  A
C257        C262   1.400       .  A
C257        C396   1.478       .  S
C258        C259   1.411       .  A
C258        H263   1.084       .  S
C259        C260   1.408       .  A
C259        C384   1.496       .  S
C260        C261   1.405       .  A
C260        H264   1.084       .  S
C261        C262   1.397       .  A
C261        C372   1.476       .  S
C262        H265   1.084       .  S
C266        C267   1.406       .  A
C266        C271   1.399       .  A
C266        C360   1.489       .  S
C267        C268   1.399       .  A
C267        H272   1.082       .  S
C268        C269   1.406       .  A
C268        C333   1.487       .  S
C269        C270   1.406       .  A
C269        H273   1.082       .  S
C270        C271   1.405       .  A
C270        C345   1.492       .  S
C271        H274   1.083       .  S
O275        C283   1.258   1_565  A
O275       Co771   2.010       .  S
O276        C284   1.274       .  A
O276       Co296   1.999   1_545  S
O277        C285   1.257       .  A
O277       Co297   1.944       .  S
O278       Co298   1.901       .  S
O279        C285   1.275   1_655  A
O279      Co1248   2.043   1_545  S
O280       C1000   1.293   1_456  A
O280       Co295   2.104       .  S
O281        C284   1.274       .  A
O281       Co774   1.980   1_545  S
O282        C283   1.249       .  A
O282       Co297   1.958       .  S
C283        C468   1.487       .  S
C284        C441   1.479       .  S
C285        C369   1.480       .  S
C286        C330   1.477       .  S
C286        O994   1.293       .  A
O287        C300   1.267       .  A
O287      Co1247   1.902       .  S
O288        C777   1.260       .  A
O288       Co296   1.963       .  S
O289        C302   1.278       .  A
O289       Co773   2.031       .  S
O290        C303   1.264       .  A
O290       Co298   2.005       .  S
O291        C303   1.264       .  A
O291       Co772   1.984       .  S
O292        C302   1.272       .  A
O292       Co295   1.977       .  S
O293        C300   1.292       .  A
O293       Co298   2.078       .  S
O294       C1729   1.271   1_545  A
O294       Co297   2.023       .  S
Co295       O751   2.010       .  S
Co295      O1239   1.902       .  S
Co295      O1251   2.037       .  S
Co296      O1231   2.043   1_565  S
Co296       O767   1.984       .  S
Co296       O775   2.039       .  S
Co297       O765   2.031   1_545  S
Co297      O1727   2.016   1_545  S
Co298       O757   1.980       .  S
Co298       O299   1.999       .  S
O299      Co1247   2.037       .  S
O299       Co772   2.039       .  S
O299      Co1725   2.016       .  S
C300        C453   1.483       .  S
C301        C315   1.454       .  S
C301        O764   1.260       .  A
C301       O1722   1.271       .  A
C302        C393   1.480       .  S
C303        C381   1.487       .  S
O304        C312   1.274   1_565  A
O304       Co800   2.024       .  S
O305        C313   1.292       .  A
O305       Co325   2.090       .  S
O306        C314   1.249       .  A
O306       Co326   1.960       .  S
O307        C315   1.265       .  A
O307       Co327   1.961       .  S
O308        C314   1.261   1_655  A
O308      Co1277   2.022       .  S
O309       C1267   1.276       .  A
O309       Co324   2.031       .  S
O310        C313   1.268   1_565  A
O310       Co803   1.901       .  S
O311        C312   1.260       .  A
O311       Co326   1.963       .  S
C312        C432   1.470       .  S
C313        C408   1.476       .  S
C314        C336   1.494       .  S
C315       O1261   1.276       .  A
O316        C329   1.251       .  A
O316      Co1276   1.959       .  S
O317        C806   1.267       .  A
O317       Co325   1.957   1_565  S
O318        C331   1.269       .  A
O318       Co802   2.025       .  S
O319        C332   1.291       .  A
O319       Co327   2.079       .  S
O320        C332   1.266       .  A
O320       Co801   1.906       .  S
O321        C331   1.253       .  A
O321       Co324   1.944       .  S
O322        C329   1.269       .  A
O322       Co327   2.043       .  S
O323       C1758   1.284   1_445  A
O323       Co326   2.053       .  S
Co324       O780   2.024       .  S
Co324      O1268   1.959   1_455  S
Co324      O1280   2.011       .  S
Co325      O1260   2.022       .  S
Co325       O796   1.905       .  S
Co325       O804   2.012   1_545  S
Co326       O794   2.025       .  S
Co326      O1756   2.025   1_545  S
Co327       O786   1.901       .  S
Co327       O328   2.001       .  S
O328      Co1276   2.011       .  S
O328       Co801   2.012       .  S
O328      Co1754   2.025       .  S
C329        C420   1.500       .  S
C330        O793   1.267       .  A
C330       O1751   1.284       .  A
C331        C357   1.474       .  S
C332        C348   1.486       .  S
C333        C334   1.400       .  A
C333        C338   1.412       .  A
C334        C335   1.395       .  A
C334        H339   1.084       .  S
C335        C336   1.421       .  A
C335        C342   1.447       .  S
C336        C337   1.410       .  A
C337        C338   1.407       .  A
C337        H340   1.083       .  S
C338        C341   1.443       .  S
C341        N343   1.157       .  T
C342        N344   1.158       .  T
C345        C346   1.407       .  A
C345        C350   1.416       .  A
C346        C347   1.398       .  A
C346        H351   1.086       .  S
C347        C348   1.414       .  A
C347        C354   1.441       .  S
C348        C349   1.407       .  A
C349        C350   1.397       .  A
C349        H352   1.086       .  S
C350        C353   1.444       .  S
C353        N355   1.157       .  T
C354        N832   1.156       .  T
N356        C830   1.156   1_545  T
C357        C358   1.404       .  A
C357        C362   1.407       .  A
C358        C359   1.390       .  A
C358        H363   1.085       .  S
C359        C360   1.414       .  A
C359        C366   1.446       .  S
C360        C361   1.414       .  A
C361        C362   1.404       .  A
C361        H364   1.083       .  S
C362        C365   1.442       .  S
C365        N843   1.157       .  T
C366        N368   1.157       .  T
N367        C841   1.157   1_545  T
C369        C370   1.407       .  A
C369        C374   1.414       .  A
C370        C371   1.407       .  A
C370        H375   1.083       .  S
C371        C372   1.409       .  A
C371        C378   1.443       .  S
C372        C373   1.399       .  A
C373        C374   1.395       .  A
C373        H376   1.084       .  S
C374        C377   1.445       .  S
C377        N379   1.157       .  T
C378        N380   1.157       .  T
C381        C382   1.403       .  A
C381        C386   1.415       .  A
C382        C383   1.406       .  A
C382        H387   1.085       .  S
C383        C384   1.417       .  A
C383        C390   1.444       .  S
C384        C385   1.404       .  A
C385        C386   1.405       .  A
C385        H388   1.085       .  S
C386        C389   1.445       .  S
C389        N867   1.157       .  T
C390        N392   1.157       .  T
N391        C865   1.157       .  T
C393        C394   1.407       .  A
C393        C398   1.414       .  A
C394        C395   1.410       .  A
C394        H399   1.085       .  S
C395        C396   1.411       .  A
C395        C402   1.442       .  S
C396        C397   1.397       .  A
C397        C398   1.394       .  A
C397        H400   1.087       .  S
C398        C401   1.440       .  S
C401        N403   1.156       .  T
C402        N404   1.157       .  T
C405        C406   1.411       .  A
C405        C410   1.418       .  A
C406        C407   1.392       .  A
C406        H411   1.080       .  S
C407        C408   1.405       .  A
C407        C890   1.446   1_545  S
C408        C409   1.405       .  A
C409        C410   1.410       .  A
C409        H412   1.083       .  S
C410        C413   1.443       .  S
C413        N415   1.157       .  T
C414        C883   1.446       .  S
C414        N416   1.157       .  T
C417        C418   1.408       .  A
C417        C422   1.411       .  A
C418        C419   1.407       .  A
C418        H423   1.084       .  S
C419        C420   1.413       .  A
C419        C426   1.439       .  S
C420        C421   1.412       .  A
C421        C422   1.402       .  A
C421        H424   1.084       .  S
C422        C425   1.445       .  S
C425        N427   1.157       .  T
C426        N428   1.156       .  T
C429        C430   1.405       .  A
C429        C434   1.416       .  A
C430        C431   1.405       .  A
C430        H435   1.085       .  S
C431        C432   1.411       .  A
C431        C438   1.444       .  S
C432        C433   1.399       .  A
C433        C434   1.392       .  A
C433        H436   1.087       .  S
C434        C437   1.445       .  S
C437        N439   1.157       .  T
C438        N440   1.157       .  T
C441        C442   1.407       .  A
C441        C446   1.411       .  A
C442        C443   1.398       .  A
C442        H447   1.085       .  S
C443        C444   1.407       .  A
C443        C450   1.444       .  S
C445        H448   1.083       .  S
C449        N451   1.153       .  T
C450        N452   1.157       .  T
C453        C454   1.407       .  A
C453        C458   1.415       .  A
C454        C455   1.396       .  A
C454        H459   1.085       .  S
C455        C456   1.411       .  A
C455        C462   1.445       .  S
C457        H460   1.086       .  S
C461       N1415   1.154       .  T
C462        N464   1.157       .  T
N463       C1413   1.154   1_455  T
C465        C466   1.405       .  A
C466        C467   1.392       .  A
C466        H471   1.083       .  S
C467        C468   1.416       .  A
C467        C474   1.446       .  S
C468        C469   1.407       .  A
C470        C473   1.444       .  S
C473        N475   1.157       .  T
C474        N476   1.157       .  T
C477        C478   1.391       .  A
C477        C482   1.405       .  A
C477        C920   1.469       .  S
C478        C479   1.394       .  A
C478        H483   1.085       .  S
C479        C480   1.397       .  A
C479        C932   1.474       .  S
C480        C481   1.409       .  A
C480        H484   1.083       .  S
C481        C482   1.411       .  A
C481        C941   1.495       .  S
C482        H485   1.083       .  S
C486        C487   1.415       .  A
C486        C491   1.406       .  A
C486        C643   1.505       .  S
C487        C488   1.416       .  A
C487        H492   1.081       .  S
C488        C489   1.405       .  A
C488        C655   1.496       .  S
C489        C490   1.399       .  A
C489        H493   1.084       .  S
C490        C491   1.396       .  A
C490        C667   1.482       .  S
C491        H494   1.084       .  S
C495        C496   1.408       .  A
C495        C500   1.400       .  A
C495        C634   1.479       .  S
C496        C497   1.411       .  A
C496        H501   1.084       .  S
C497        C498   1.408       .  A
C497        C622   1.496       .  S
C498        C499   1.405       .  A
C498        H502   1.084       .  S
C499        C500   1.397       .  A
C499        C610   1.476       .  S
C500        H503   1.084       .  S
C504        C505   1.406       .  A
C504        C509   1.399       .  A
C504        C598   1.489       .  S
C505        C506   1.399       .  A
C505        H510   1.082       .  S
C506        C507   1.406       .  A
C506        C571   1.487       .  S
C507        C508   1.406       .  A
C507        H511   1.082       .  S
C508        C509   1.405       .  A
C508        C583   1.492       .  S
C509        H512   1.083       .  S
O513        C521   1.258       .  A
O514        C522   1.274       .  A
O514       Co534   1.999       .  S
O515        C523   1.257       .  A
O515       Co535   1.944       .  S
O516        C762   1.265       .  A
O516       Co536   1.901       .  S
O517        C523   1.275   1_655  A
O517      Co1486   2.043       .  S
O518       C1714   1.293   1_455  A
O518       Co533   2.104       .  S
O519        C522   1.274       .  A
O520        C521   1.249       .  A
O520       Co535   1.958       .  S
C521        C706   1.487       .  S
C522        C679   1.479       .  S
C523        C607   1.480       .  S
C524        C568   1.477       .  S
C524        O754   1.265   1_554  A
C524       O1708   1.293   1_554  A
O525        C538   1.267       .  A
O525      Co1485   1.902       .  S
O526       Co534   1.963       .  S
O527        C540   1.278       .  A
O528        C541   1.264       .  A
O528       Co536   2.005       .  S
O529        C541   1.264       .  A
O530        C540   1.272       .  A
O530       Co533   1.977       .  S
O531        C538   1.292       .  A
O531       Co536   2.078       .  S
O532       C1015   1.271       .  A
O532       Co535   2.023       .  S
Co533      O1477   1.902       .  S
Co533      O1489   2.037       .  S
Co534      O1469   2.043       .  S
Co535      O1013   2.016       .  S
Co536       O537   1.999       .  S
O537      Co1485   2.037       .  S
O537      Co1011   2.016   1_565  S
C538        C691   1.483       .  S
C539        C553   1.454       .  S
C539       O1008   1.271   1_565  A
C540        C631   1.480       .  S
C541        C619   1.487       .  S
O542        C550   1.274       .  A
O543        C551   1.292       .  A
O543       Co563   2.090       .  S
O544        C552   1.249       .  A
O544       Co564   1.960       .  S
O545        C553   1.265   1_545  A
O545       Co565   1.961   1_545  S
O546        C552   1.261   1_655  A
O546      Co1515   2.022       .  S
O547       C1505   1.276       .  A
O547       Co562   2.031       .  S
O548        C551   1.268       .  A
O549        C550   1.260       .  A
O549       Co564   1.964       .  S
C550        C670   1.470       .  S
C551        C646   1.476       .  S
C552        C574   1.494       .  S
C553       O1499   1.276       .  A
O554        C567   1.251       .  A
O554      Co1514   1.959       .  S
O555       Co563   1.957       .  S
O556        C569   1.269   1_545  A
O557        C570   1.291       .  A
O557       Co565   2.079       .  S
O558        C570   1.266   1_545  A
O559        C569   1.253       .  A
O559       Co562   1.944       .  S
O560        C567   1.269       .  A
O560       Co565   2.043       .  S
O561       C1044   1.284   1_455  A
O561       Co564   2.053       .  S
Co562      O1506   1.959   1_455  S
Co562      O1518   2.011       .  S
Co563      O1498   2.022       .  S
Co564      O1042   2.025       .  S
Co565       O566   2.001       .  S
O566      Co1514   2.011       .  S
O566      Co1040   2.025   1_565  S
C567        C658   1.500       .  S
C568       O1037   1.284   1_565  A
C569        C595   1.474       .  S
C570        C586   1.486       .  S
C571        C572   1.400       .  A
C571        C576   1.412       .  A
C572        C573   1.395       .  A
C572        H577   1.084       .  S
C573        C574   1.421       .  A
C573        C580   1.447       .  S
C574        C575   1.410       .  A
C575        C576   1.407       .  A
C575        H578   1.083       .  S
C576        C579   1.443       .  S
C579        N581   1.157       .  T
C580        N582   1.158       .  T
C583        C584   1.407       .  A
C583        C588   1.416       .  A
C584        C585   1.398       .  A
C584        H589   1.086       .  S
C585        C586   1.414       .  A
C585        C592   1.441       .  S
C586        C587   1.407       .  A
C587        C588   1.397       .  A
C587        H590   1.086       .  S
C588        C591   1.444       .  S
C591        N593   1.157       .  T
C595        C596   1.404       .  A
C595        C600   1.407       .  A
C596        C597   1.390       .  A
C596        H601   1.085       .  S
C597        C598   1.414       .  A
C597        C604   1.446       .  S
C598        C599   1.414       .  A
C599        C600   1.404       .  A
C599        H602   1.083       .  S
C600        C603   1.442       .  S
C604        N606   1.157       .  T
C607        C608   1.407       .  A
C607        C612   1.414       .  A
C608        C609   1.407       .  A
C608        H613   1.083       .  S
C609        C610   1.409       .  A
C609        C616   1.443       .  S
C610        C611   1.399       .  A
C611        C612   1.395       .  A
C611        H614   1.084       .  S
C612        C615   1.445       .  S
C615        N617   1.157       .  T
C616        N618   1.157       .  T
C619        C620   1.403       .  A
C619        C624   1.415       .  A
C620        C621   1.407       .  A
C620        H625   1.085       .  S
C621        C622   1.417       .  A
C621        C628   1.444       .  S
C622        C623   1.404       .  A
C623        C624   1.405       .  A
C623        H626   1.085       .  S
C624        C627   1.445       .  S
C628        N630   1.157       .  T
C631        C632   1.407       .  A
C631        C636   1.414       .  A
C632        C633   1.410       .  A
C632        H637   1.085       .  S
C633        C634   1.411       .  A
C633        C640   1.442       .  S
C634        C635   1.397       .  A
C635        C636   1.394       .  A
C635        H638   1.087       .  S
C636        C639   1.440       .  S
C639        N641   1.156       .  T
C640        N642   1.157       .  T
C643        C644   1.411       .  A
C643        C648   1.418       .  A
C644        C645   1.392       .  A
C644        H649   1.080       .  S
C645        C646   1.405       .  A
C646        C647   1.405       .  A
C647        C648   1.410       .  A
C647        H650   1.083       .  S
C648        C651   1.443       .  S
C651        N653   1.157       .  T
C652        N654   1.157       .  T
C655        C656   1.408       .  A
C655        C660   1.411       .  A
C656        C657   1.407       .  A
C656        H661   1.084       .  S
C657        C658   1.413       .  A
C657        C664   1.440       .  S
C658        C659   1.412       .  A
C659        C660   1.402       .  A
C659        H662   1.084       .  S
C660        C663   1.445       .  S
C663        N665   1.157       .  T
C664        N666   1.156       .  T
C667        C668   1.405       .  A
C667        C672   1.416       .  A
C668        C669   1.405       .  A
C668        H673   1.085       .  S
C669        C670   1.411       .  A
C669        C676   1.444       .  S
C670        C671   1.399       .  A
C671        C672   1.392       .  A
C671        H674   1.087       .  S
C672        C675   1.445       .  S
C675        N677   1.157       .  T
C676        N678   1.157       .  T
C679        C680   1.407       .  A
C679        C684   1.411       .  A
C680        C681   1.398       .  A
C680        H685   1.085       .  S
C681        C682   1.407       .  A
C681        C688   1.444       .  S
C682        C921   1.397       .  A
C682        C715   1.469       .  S
C683        C920   1.397       .  A
C683        C922   1.397       .  A
C683        H686   1.083   1_556  S
C684        C921   1.397       .  A
C684        C925   1.435       .  S
C687        C922   1.435   1_554  S
C687        N689   1.153       .  T
C688        N690   1.157       .  T
C691        C692   1.407       .  A
C691        C696   1.415       .  A
C692        C693   1.396       .  A
C692        H697   1.085       .  S
C693        C694   1.411       .  A
C693        C700   1.445       .  S
C694        C933   1.399       .  A
C694        C717   1.474       .  S
C695        C932   1.399       .  A
C695        C934   1.394       .  A
C695        H698   1.086   1_556  S
C696        C933   1.394       .  A
C696        C937   1.436       .  S
C699        C934   1.436   1_554  S
C699       N1653   1.154       .  T
C700        N702   1.157       .  T
N701       C1651   1.154   1_455  T
C703        C704   1.405       .  A
C703        C946   1.415       .  A
C703        C719   1.495       .  S
C704        C705   1.392       .  A
C704        H709   1.083       .  S
C705        C706   1.416       .  A
C705        C712   1.446       .  S
C706        C707   1.407       .  A
C707        C946   1.404       .  A
C707        H948   1.082       .  S
C708        C941   1.415       .  A
C708        C945   1.404       .  A
C708        C711   1.444   1_556  S
H710        C945   1.082       .  S
C711        N713   1.157       .  T
C712        N714   1.157       .  T
C715        C716   1.391       .  A
C715        C720   1.405       .  A
C716        C717   1.394       .  A
C716        H721   1.085       .  S
C717        C718   1.397       .  A
C718        C719   1.409       .  A
C718        H722   1.083       .  S
C719        C720   1.411       .  A
C720        H723   1.083       .  S
C724        C725   1.415       .  A
C724        C729   1.406       .  A
C724        C881   1.505       .  S
C725        C726   1.416       .  A
C725        H730   1.081       .  S
C726        C727   1.405       .  A
C726        C893   1.496       .  S
C727        C728   1.399       .  A
C727        H731   1.084       .  S
C728        C729   1.396       .  A
C728        C905   1.482       .  S
C729        H732   1.084       .  S
C733        C734   1.408       .  A
C733        C738   1.400       .  A
C733        C872   1.479       .  S
C734        C735   1.411       .  A
C734        H739   1.084       .  S
C735        C736   1.408       .  A
C735        C860   1.496       .  S
C736        C737   1.405       .  A
C736        H740   1.084       .  S
C737        C738   1.397       .  A
C737        C848   1.476       .  S
C738        H741   1.084       .  S
C742        C743   1.406       .  A
C742        C747   1.399       .  A
C742        C836   1.489       .  S
C743        C744   1.399       .  A
C743        H748   1.082       .  S
C744        C745   1.406       .  A
C744        C809   1.487       .  S
C745        C746   1.406       .  A
C745        H749   1.082       .  S
C746        C747   1.405       .  A
C746        C821   1.492       .  S
C747        H750   1.083       .  S
O751        C759   1.258       .  A
O752        C760   1.274       .  A
O752       Co772   1.999       .  S
O753        C761   1.257       .  A
O753       Co773   1.944       .  S
O754       Co774   1.901       .  S
O755        C761   1.275   1_655  A
O755      Co1724   2.043       .  S
O756       C1476   1.293   1_456  A
O756       Co771   2.104       .  S
O757        C760   1.274       .  A
O758        C759   1.249       .  A
O758       Co773   1.958       .  S
C759        C944   1.487       .  S
C760        C917   1.479       .  S
C761        C845   1.480       .  S
C762        C806   1.477       .  S
C762       O1470   1.293       .  A
O763        C776   1.267       .  A
O763      Co1723   1.902       .  S
O764       Co772   1.963       .  S
O765        C778   1.278       .  A
O766        C779   1.264       .  A
O766       Co774   2.005       .  S
O767        C779   1.264       .  A
O768        C778   1.272       .  A
O768       Co771   1.977       .  S
O769        C776   1.292       .  A
O769       Co774   2.078       .  S
O770       C1253   1.271       .  A
O770       Co773   2.023       .  S
Co771      O1715   1.902       .  S
Co771      O1727   2.037       .  S
Co772      O1707   2.043       .  S
Co773      O1251   2.016       .  S
Co774       O775   1.999       .  S
O775      Co1723   2.037       .  S
O775      Co1249   2.016   1_565  S
C776        C929   1.483       .  S
C777        C791   1.454       .  S
C777       O1246   1.271   1_565  A
C778        C869   1.480       .  S
C779        C857   1.487       .  S
O780        C788   1.274       .  A
O781        C789   1.292       .  A
O781       Co801   2.090       .  S
O782        C790   1.249       .  A
O782       Co802   1.960       .  S
O783        C791   1.265   1_545  A
O783       Co803   1.961   1_545  S
O784        C790   1.261   1_655  A
O784      Co1753   2.022       .  S
O785       C1743   1.276       .  A
O785       Co800   2.031       .  S
O786        C789   1.268       .  A
O787        C788   1.260       .  A
O787       Co802   1.964       .  S
C788        C908   1.470       .  S
C789        C884   1.476       .  S
C790        C812   1.494       .  S
C791       O1737   1.276       .  A
O792        C805   1.251       .  A
O792      Co1752   1.959       .  S
O793       Co801   1.957       .  S
O794        C807   1.269   1_545  A
O795        C808   1.291       .  A
O795       Co803   2.079       .  S
O796        C808   1.266   1_545  A
O797        C807   1.253       .  A
O797       Co800   1.944       .  S
O798        C805   1.269       .  A
O798       Co803   2.043       .  S
O799       C1282   1.284   1_455  A
O799       Co802   2.053       .  S
Co800      O1744   1.959   1_455  S
Co800      O1756   2.011       .  S
Co801      O1736   2.022       .  S
Co802      O1280   2.025       .  S
Co803       O804   2.001       .  S
O804      Co1752   2.011       .  S
O804      Co1278   2.025   1_565  S
C805        C896   1.500       .  S
C806       O1275   1.284   1_565  A
C807        C833   1.474       .  S
C808        C824   1.486       .  S
C809        C810   1.400       .  A
C809        C814   1.412       .  A
C810        C811   1.395       .  A
C810        H815   1.084       .  S
C811        C812   1.421       .  A
C811        C818   1.447       .  S
C812        C813   1.410       .  A
C813        C814   1.407       .  A
C813        H816   1.083       .  S
C814        C817   1.443       .  S
C817        N819   1.157       .  T
C818        N820   1.158       .  T
C821        C822   1.407       .  A
C821        C826   1.416       .  A
C822        C823   1.398       .  A
C822        H827   1.086       .  S
C823        C824   1.414       .  A
C823        C830   1.441       .  S
C824        C825   1.407       .  A
C825        C826   1.397       .  A
C825        H828   1.086       .  S
C826        C829   1.444       .  S
C829        N831   1.157       .  T
C833        C834   1.404       .  A
C833        C838   1.407       .  A
C834        C835   1.390       .  A
C834        H839   1.085       .  S
C835        C836   1.414       .  A
C835        C842   1.446       .  S
C836        C837   1.414       .  A
C837        C838   1.404       .  A
C837        H840   1.083       .  S
C838        C841   1.442       .  S
C842        N844   1.157       .  T
C845        C846   1.407       .  A
C845        C850   1.414       .  A
C846        C847   1.407       .  A
C846        H851   1.083       .  S
C847        C848   1.409       .  A
C847        C854   1.443       .  S
C848        C849   1.399       .  A
C849        C850   1.395       .  A
C849        H852   1.084       .  S
C850        C853   1.445       .  S
C853        N855   1.157       .  T
C854        N856   1.157       .  T
C857        C858   1.403       .  A
C857        C862   1.415       .  A
C858        C859   1.407       .  A
C858        H863   1.085       .  S
C859        C860   1.417       .  A
C859        C866   1.444       .  S
C860        C861   1.404       .  A
C861        C862   1.405       .  A
C861        H864   1.085       .  S
C862        C865   1.445       .  S
C866        N868   1.157       .  T
C869        C870   1.407       .  A
C869        C874   1.414       .  A
C870        C871   1.410       .  A
C870        H875   1.085       .  S
C871        C872   1.411       .  A
C871        C878   1.442       .  S
C872        C873   1.397       .  A
C873        C874   1.394       .  A
C873        H876   1.087       .  S
C874        C877   1.440       .  S
C877        N879   1.156       .  T
C878        N880   1.157       .  T
C881        C882   1.411       .  A
C881        C886   1.418       .  A
C882        C883   1.392       .  A
C882        H887   1.080       .  S
C883        C884   1.405       .  A
C884        C885   1.405       .  A
C885        C886   1.410       .  A
C885        H888   1.083       .  S
C886        C889   1.443       .  S
C889        N891   1.157       .  T
C890        N892   1.157       .  T
C893        C894   1.408       .  A
C893        C898   1.411       .  A
C894        C895   1.407       .  A
C894        H899   1.084       .  S
C895        C896   1.413       .  A
C895        C902   1.440       .  S
C896        C897   1.412       .  A
C897        C898   1.402       .  A
C897        H900   1.084       .  S
C898        C901   1.445       .  S
C901        N903   1.157       .  T
C902        N904   1.156       .  T
C905        C906   1.405       .  A
C905        C910   1.416       .  A
C906        C907   1.405       .  A
C906        H911   1.085       .  S
C907        C908   1.411       .  A
C907        C914   1.444       .  S
C908        C909   1.399       .  A
C909        C910   1.392       .  A
C909        H912   1.087       .  S
C910        C913   1.445       .  S
C913        N915   1.157       .  T
C914        N916   1.157       .  T
C917        C918   1.407       .  A
C917        C922   1.411       .  A
C918        C919   1.398       .  A
C918        H923   1.085       .  S
C919        C920   1.407       .  A
C919        C926   1.444       .  S
C921        H924   1.083       .  S
C925        N927   1.153       .  T
C926        N928   1.157       .  T
C929        C930   1.407       .  A
C929        C934   1.415       .  A
C930        C931   1.396       .  A
C930        H935   1.085       .  S
C931        C932   1.411       .  A
C931        C938   1.445       .  S
C933        H936   1.086       .  S
C937       N1891   1.154       .  T
C938        N940   1.157       .  T
N939       C1889   1.154   1_455  T
C941        C942   1.405       .  A
C942        C943   1.392       .  A
C942        H947   1.083       .  S
C943        C944   1.416       .  A
C943        C950   1.446       .  S
C944        C945   1.407       .  A
C946        C949   1.444       .  S
C949        N951   1.157       .  T
C950        N952   1.157       .  T
C953        C954   1.391       .  A
C953        C958   1.405       .  A
C953       C1396   1.469       .  S
C954        C955   1.394       .  A
C954        H959   1.085       .  S
C955        C956   1.397       .  A
C955       C1408   1.474       .  S
C956        C957   1.409       .  A
C956        H960   1.083       .  S
C957        C958   1.411       .  A
C957       C1417   1.495       .  S
C958        H961   1.083       .  S
C962        C963   1.415       .  A
C962        C967   1.406       .  A
C962       C1119   1.505       .  S
C963        C964   1.416       .  A
C963        H968   1.081       .  S
C964        C965   1.405       .  A
C964       C1131   1.496       .  S
C965        C966   1.399       .  A
C965        H969   1.084       .  S
C966        C967   1.396       .  A
C966       C1143   1.482       .  S
C967        H970   1.084       .  S
C971        C972   1.408       .  A
C971        C976   1.400       .  A
C971       C1110   1.478       .  S
C972        C973   1.411       .  A
C972        H977   1.084       .  S
C973        C974   1.408       .  A
C973       C1098   1.496       .  S
C974        C975   1.405       .  A
C974        H978   1.084       .  S
C975        C976   1.397       .  A
C975       C1086   1.476       .  S
C976        H979   1.084       .  S
C980        C981   1.406       .  A
C980        C985   1.399       .  A
C980       C1074   1.489       .  S
C981        C982   1.399       .  A
C981        H986   1.082       .  S
C982        C983   1.406       .  A
C982       C1047   1.487       .  S
C983        C984   1.406       .  A
C983        H987   1.082       .  S
C984        C985   1.405       .  A
C984       C1059   1.492       .  S
C985        H988   1.083       .  S
O989        C997   1.258   1_565  A
O989      Co1485   2.010       .  S
O990        C998   1.274       .  A
O990      Co1010   1.999   1_545  S
O991        C999   1.257       .  A
O991      Co1011   1.944       .  S
O992       C1238   1.265       .  A
O992      Co1012   1.901       .  S
O993        C999   1.275       .  A
O994      Co1009   2.104       .  S
O995        C998   1.274       .  A
O995      Co1488   1.980   1_545  S
O996        C997   1.249       .  A
O996      Co1011   1.958       .  S
C997       C1182   1.487       .  S
C998       C1155   1.479       .  S
C999       C1083   1.480       .  S
C1000      C1044   1.477       .  S
C1000      O1230   1.265   1_554  A
O1001      C1014   1.267   1_455  A
O1002      C1491   1.260   1_655  A
O1002     Co1010   1.963       .  S
O1003      C1016   1.278       .  A
O1003     Co1487   2.031       .  S
O1004      C1017   1.264       .  A
O1004     Co1012   2.005       .  S
O1005      C1017   1.264       .  A
O1005     Co1486   1.984       .  S
O1006      C1016   1.272       .  A
O1006     Co1009   1.977       .  S
O1007      C1014   1.292       .  A
O1007     Co1012   2.078       .  S
O1008     Co1011   2.023       .  S
Co1009     O1465   2.010       .  S
Co1010     O1481   1.984       .  S
Co1010     O1489   2.039   1_655  S
Co1011     O1479   2.031   1_545  S
Co1012     O1471   1.980       .  S
Co1012     O1013   1.999   1_655  S
O1013     Co1486   2.039   1_455  S
C1014      C1167   1.483       .  S
C1015      C1029   1.454       .  S
C1015      O1478   1.260   1_455  A
C1016      C1107   1.480       .  S
C1017      C1095   1.487       .  S
O1018      C1026   1.274   1_565  A
O1018     Co1514   2.024       .  S
O1019      C1027   1.292       .  A
O1019     Co1039   2.090       .  S
O1020      C1028   1.249       .  A
O1020     Co1040   1.960       .  S
O1021      C1029   1.265       .  A
O1021     Co1041   1.961   1_455  S
O1022      C1028   1.261       .  A
O1023     Co1038   2.031       .  S
O1024      C1027   1.268   1_565  A
O1024     Co1517   1.901       .  S
O1025      C1026   1.260       .  A
O1025     Co1040   1.963       .  S
C1026      C1146   1.470       .  S
C1027      C1122   1.476       .  S
C1028      C1050   1.494       .  S
O1030      C1043   1.251       .  A
O1031      C1520   1.267       .  A
O1031     Co1039   1.957   1_565  S
O1032      C1045   1.269       .  A
O1032     Co1516   2.025       .  S
O1033      C1046   1.291       .  A
O1033     Co1041   2.079       .  S
O1034      C1046   1.266       .  A
O1034     Co1515   1.906       .  S
O1035      C1045   1.253       .  A
O1035     Co1038   1.944       .  S
O1036      C1043   1.269       .  A
O1036     Co1041   2.043       .  S
O1037     Co1040   2.053       .  S
Co1038     O1494   2.024       .  S
Co1039     O1510   1.905       .  S
Co1039     O1518   2.012   1_645  S
Co1040     O1508   2.025       .  S
Co1041     O1500   1.901       .  S
Co1041     O1042   2.001   1_655  S
O1042     Co1515   2.012   1_455  S
C1043      C1134   1.500       .  S
C1044      O1507   1.267       .  A
C1045      C1071   1.474       .  S
C1046      C1062   1.486       .  S
C1047      C1048   1.400       .  A
C1047      C1052   1.412       .  A
C1048      C1049   1.395       .  A
C1048      H1053   1.084       .  S
C1049      C1050   1.421       .  A
C1049      C1056   1.447       .  S
C1050      C1051   1.410       .  A
C1051      C1052   1.407       .  A
C1051      H1054   1.083       .  S
C1052      C1055   1.443       .  S
C1055      N1057   1.157       .  T
C1056      N1058   1.158       .  T
C1059      C1060   1.407       .  A
C1059      C1064   1.416       .  A
C1060      C1061   1.398       .  A
C1060      H1065   1.086       .  S
C1061      C1062   1.414       .  A
C1061      C1068   1.441       .  S
C1062      C1063   1.407       .  A
C1063      C1064   1.397       .  A
C1063      H1066   1.086       .  S
C1064      C1067   1.444       .  S
C1067      N1069   1.157       .  T
C1068      N1546   1.156       .  T
N1070      C1544   1.156   1_545  T
C1071      C1072   1.404       .  A
C1071      C1076   1.407       .  A
C1072      C1073   1.390       .  A
C1072      H1077   1.085       .  S
C1073      C1074   1.414       .  A
C1073      C1080   1.446       .  S
C1074      C1075   1.414       .  A
C1075      C1076   1.404       .  A
C1075      H1078   1.083       .  S
C1076      C1079   1.442       .  S
C1079      N1557   1.157       .  T
C1080      N1082   1.157       .  T
N1081      C1555   1.157   1_545  T
C1083      C1084   1.407       .  A
C1083      C1088   1.414       .  A
C1084      C1085   1.407       .  A
C1084      H1089   1.083       .  S
C1085      C1086   1.409       .  A
C1085      C1092   1.443       .  S
C1086      C1087   1.399       .  A
C1087      C1088   1.395       .  A
C1087      H1090   1.084       .  S
C1088      C1091   1.445       .  S
C1091      N1093   1.157       .  T
C1092      N1094   1.157       .  T
C1095      C1096   1.403       .  A
C1095      C1100   1.415       .  A
C1096      C1097   1.406       .  A
C1096      H1101   1.085       .  S
C1097      C1098   1.417       .  A
C1097      C1104   1.444       .  S
C1098      C1099   1.404       .  A
C1099      C1100   1.405       .  A
C1099      H1102   1.085       .  S
C1100      C1103   1.445       .  S
C1103      N1581   1.157       .  T
C1104      N1106   1.157       .  T
N1105      C1579   1.157       .  T
C1107      C1108   1.407       .  A
C1107      C1112   1.414       .  A
C1108      C1109   1.410       .  A
C1108      H1113   1.085       .  S
C1109      C1110   1.411       .  A
C1109      C1116   1.442       .  S
C1110      C1111   1.397       .  A
C1111      C1112   1.394       .  A
C1111      H1114   1.087       .  S
C1112      C1115   1.440       .  S
C1115      N1117   1.156       .  T
C1116      N1118   1.157       .  T
C1119      C1120   1.411       .  A
C1119      C1124   1.418       .  A
C1120      C1121   1.392       .  A
C1120      H1125   1.080       .  S
C1121      C1122   1.405       .  A
C1121      C1604   1.446   1_545  S
C1122      C1123   1.405       .  A
C1123      C1124   1.410       .  A
C1123      H1126   1.083       .  S
C1124      C1127   1.443       .  S
C1127      N1129   1.157       .  T
C1128      C1597   1.446       .  S
C1128      N1130   1.157       .  T
C1131      C1132   1.408       .  A
C1131      C1136   1.411       .  A
C1132      C1133   1.407       .  A
C1132      H1137   1.084       .  S
C1133      C1134   1.413       .  A
C1133      C1140   1.439       .  S
C1134      C1135   1.412       .  A
C1135      C1136   1.402       .  A
C1135      H1138   1.084       .  S
C1136      C1139   1.445       .  S
C1139      N1141   1.157       .  T
C1140      N1142   1.156       .  T
C1143      C1144   1.405       .  A
C1143      C1148   1.416       .  A
C1144      C1145   1.405       .  A
C1144      H1149   1.085       .  S
C1145      C1146   1.411       .  A
C1145      C1152   1.444       .  S
C1146      C1147   1.399       .  A
C1147      C1148   1.392       .  A
C1147      H1150   1.087       .  S
C1148      C1151   1.445       .  S
C1151      N1153   1.157       .  T
C1152      N1154   1.157       .  T
C1155      C1156   1.407       .  A
C1155      C1160   1.411       .  A
C1156      C1157   1.398       .  A
C1156      H1161   1.085       .  S
C1157      C1158   1.407       .  A
C1157      C1164   1.444       .  S
C1158      C1397   1.397       .  A
C1158      C1191   1.469       .  S
C1159      C1396   1.397       .  A
C1159      C1398   1.397       .  A
C1159      H1162   1.083   1_556  S
C1160      C1397   1.397       .  A
C1160      C1401   1.435       .  S
C1163      C1398   1.435   1_554  S
C1163      N1165   1.153       .  T
C1164      N1166   1.157       .  T
C1167      C1168   1.407       .  A
C1167      C1172   1.415       .  A
C1168      C1169   1.396       .  A
C1168      H1173   1.085       .  S
C1169      C1170   1.411       .  A
C1169      C1176   1.445       .  S
C1170      C1409   1.399       .  A
C1170      C1193   1.474       .  S
C1171      C1408   1.399       .  A
C1171      C1410   1.394       .  A
C1171      H1174   1.086   1_556  S
C1172      C1409   1.394       .  A
C1172      C1413   1.436       .  S
C1175      C1410   1.436   1_554  S
C1176      N1178   1.157       .  T
C1179      C1180   1.405       .  A
C1179      C1422   1.415       .  A
C1179      C1195   1.495       .  S
C1180      C1181   1.392       .  A
C1180      H1185   1.083       .  S
C1181      C1182   1.416       .  A
C1181      C1188   1.446       .  S
C1182      C1183   1.407       .  A
C1183      C1422   1.404       .  A
C1183      H1424   1.082       .  S
C1184      C1417   1.415       .  A
C1184      C1421   1.404       .  A
C1184      C1187   1.444   1_556  S
H1186      C1421   1.082       .  S
C1187      N1189   1.157       .  T
C1188      N1190   1.157       .  T
C1191      C1192   1.391       .  A
C1191      C1196   1.405       .  A
C1192      C1193   1.394       .  A
C1192      H1197   1.085       .  S
C1193      C1194   1.397       .  A
C1194      C1195   1.409       .  A
C1194      H1198   1.083       .  S
C1195      C1196   1.411       .  A
C1196      H1199   1.083       .  S
C1200      C1201   1.415       .  A
C1200      C1205   1.406       .  A
C1200      C1357   1.505       .  S
C1201      C1202   1.416       .  A
C1201      H1206   1.081       .  S
C1202      C1203   1.405       .  A
C1202      C1369   1.496       .  S
C1203      C1204   1.399       .  A
C1203      H1207   1.084       .  S
C1204      C1205   1.396       .  A
C1204      C1381   1.482       .  S
C1205      H1208   1.084       .  S
C1209      C1210   1.408       .  A
C1209      C1214   1.400       .  A
C1209      C1348   1.478       .  S
C1210      C1211   1.411       .  A
C1210      H1215   1.084       .  S
C1211      C1212   1.408       .  A
C1211      C1336   1.496       .  S
C1212      C1213   1.405       .  A
C1212      H1216   1.084       .  S
C1213      C1214   1.397       .  A
C1213      C1324   1.476       .  S
C1214      H1217   1.084       .  S
C1218      C1219   1.406       .  A
C1218      C1223   1.399       .  A
C1218      C1312   1.489       .  S
C1219      C1220   1.399       .  A
C1219      H1224   1.082       .  S
C1220      C1221   1.406       .  A
C1220      C1285   1.487       .  S
C1221      C1222   1.406       .  A
C1221      H1225   1.082       .  S
C1222      C1223   1.405       .  A
C1222      C1297   1.492       .  S
C1223      H1226   1.083       .  S
O1227      C1235   1.258   1_565  A
O1227     Co1723   2.010       .  S
O1228      C1236   1.274       .  A
O1228     Co1248   1.999   1_545  S
O1229      C1237   1.257       .  A
O1229     Co1249   1.944       .  S
O1230     Co1250   1.901       .  S
O1231      C1237   1.275       .  A
O1232     Co1247   2.104       .  S
O1233      C1236   1.274       .  A
O1233     Co1726   1.980   1_545  S
O1234      C1235   1.249       .  A
O1234     Co1249   1.958       .  S
C1235      C1420   1.487       .  S
C1236      C1393   1.479       .  S
C1237      C1321   1.480       .  S
C1238      C1282   1.477       .  S
O1239      C1252   1.267   1_455  A
O1240      C1729   1.260   1_655  A
O1240     Co1248   1.963       .  S
O1241      C1254   1.278       .  A
O1241     Co1725   2.031       .  S
O1242      C1255   1.264       .  A
O1242     Co1250   2.005       .  S
O1243      C1255   1.264       .  A
O1243     Co1724   1.984       .  S
O1244      C1254   1.272       .  A
O1244     Co1247   1.977       .  S
O1245      C1252   1.292       .  A
O1245     Co1250   2.078       .  S
O1246     Co1249   2.023       .  S
Co1247     O1703   2.010       .  S
Co1248     O1719   1.984       .  S
Co1248     O1727   2.039   1_655  S
Co1249     O1717   2.031   1_545  S
Co1250     O1709   1.980       .  S
Co1250     O1251   1.999   1_655  S
O1251     Co1724   2.039   1_455  S
C1252      C1405   1.483       .  S
C1253      C1267   1.454       .  S
C1253      O1716   1.260   1_455  A
C1254      C1345   1.480       .  S
C1255      C1333   1.487       .  S
O1256      C1264   1.274   1_565  A
O1256     Co1752   2.024       .  S
O1257      C1265   1.292       .  A
O1257     Co1277   2.090       .  S
O1258      C1266   1.249       .  A
O1258     Co1278   1.960       .  S
O1259      C1267   1.265       .  A
O1259     Co1279   1.961   1_455  S
O1260      C1266   1.261       .  A
O1261     Co1276   2.031       .  S
O1262      C1265   1.268   1_565  A
O1262     Co1755   1.901       .  S
O1263      C1264   1.260       .  A
O1263     Co1278   1.963       .  S
C1264      C1384   1.470       .  S
C1265      C1360   1.476       .  S
C1266      C1288   1.494       .  S
O1268      C1281   1.251       .  A
O1269      C1758   1.267       .  A
O1269     Co1277   1.957   1_565  S
O1270      C1283   1.269       .  A
O1270     Co1754   2.025       .  S
O1271      C1284   1.291       .  A
O1271     Co1279   2.079       .  S
O1272      C1284   1.266       .  A
O1272     Co1753   1.906       .  S
O1273      C1283   1.253       .  A
O1273     Co1276   1.944       .  S
O1274      C1281   1.269       .  A
O1274     Co1279   2.043       .  S
O1275     Co1278   2.053       .  S
Co1276     O1732   2.024       .  S
Co1277     O1748   1.905       .  S
Co1277     O1756   2.012   1_645  S
Co1278     O1746   2.025       .  S
Co1279     O1738   1.901       .  S
Co1279     O1280   2.001   1_655  S
O1280     Co1753   2.012   1_455  S
C1281      C1372   1.500       .  S
C1282      O1745   1.267       .  A
C1283      C1309   1.474       .  S
C1284      C1300   1.486       .  S
C1285      C1286   1.400       .  A
C1285      C1290   1.412       .  A
C1286      C1287   1.395       .  A
C1286      H1291   1.084       .  S
C1287      C1288   1.421       .  A
C1287      C1294   1.447       .  S
C1288      C1289   1.410       .  A
C1289      C1290   1.407       .  A
C1289      H1292   1.083       .  S
C1290      C1293   1.443       .  S
C1293      N1295   1.157       .  T
C1294      N1296   1.158       .  T
C1297      C1298   1.407       .  A
C1297      C1302   1.416       .  A
C1298      C1299   1.398       .  A
C1298      H1303   1.086       .  S
C1299      C1300   1.414       .  A
C1299      C1306   1.441       .  S
C1300      C1301   1.407       .  A
C1301      C1302   1.397       .  A
C1301      H1304   1.086       .  S
C1302      C1305   1.444       .  S
C1305      N1307   1.157       .  T
C1306      N1784   1.156       .  T
N1308      C1782   1.156   1_545  T
C1309      C1310   1.404       .  A
C1309      C1314   1.407       .  A
C1310      C1311   1.390       .  A
C1310      H1315   1.085       .  S
C1311      C1312   1.414       .  A
C1311      C1318   1.446       .  S
C1312      C1313   1.414       .  A
C1313      C1314   1.404       .  A
C1313      H1316   1.083       .  S
C1314      C1317   1.442       .  S
C1317      N1795   1.157       .  T
C1318      N1320   1.157       .  T
N1319      C1793   1.157   1_545  T
C1321      C1322   1.407       .  A
C1321      C1326   1.414       .  A
C1322      C1323   1.407       .  A
C1322      H1327   1.083       .  S
C1323      C1324   1.409       .  A
C1323      C1330   1.443       .  S
C1324      C1325   1.399       .  A
C1325      C1326   1.395       .  A
C1325      H1328   1.084       .  S
C1326      C1329   1.445       .  S
C1329      N1331   1.157       .  T
C1330      N1332   1.157       .  T
C1333      C1334   1.403       .  A
C1333      C1338   1.415       .  A
C1334      C1335   1.406       .  A
C1334      H1339   1.085       .  S
C1335      C1336   1.417       .  A
C1335      C1342   1.444       .  S
C1336      C1337   1.404       .  A
C1337      C1338   1.405       .  A
C1337      H1340   1.085       .  S
C1338      C1341   1.445       .  S
C1341      N1819   1.157       .  T
C1342      N1344   1.157       .  T
N1343      C1817   1.157       .  T
C1345      C1346   1.407       .  A
C1345      C1350   1.414       .  A
C1346      C1347   1.410       .  A
C1346      H1351   1.085       .  S
C1347      C1348   1.411       .  A
C1347      C1354   1.442       .  S
C1348      C1349   1.397       .  A
C1349      C1350   1.394       .  A
C1349      H1352   1.087       .  S
C1350      C1353   1.440       .  S
C1353      N1355   1.156       .  T
C1354      N1356   1.157       .  T
C1357      C1358   1.411       .  A
C1357      C1362   1.418       .  A
C1358      C1359   1.392       .  A
C1358      H1363   1.080       .  S
C1359      C1360   1.405       .  A
C1359      C1842   1.446   1_545  S
C1360      C1361   1.405       .  A
C1361      C1362   1.410       .  A
C1361      H1364   1.083       .  S
C1362      C1365   1.443       .  S
C1365      N1367   1.157       .  T
C1366      C1835   1.446       .  S
C1366      N1368   1.157       .  T
C1369      C1370   1.408       .  A
C1369      C1374   1.411       .  A
C1370      C1371   1.407       .  A
C1370      H1375   1.084       .  S
C1371      C1372   1.413       .  A
C1371      C1378   1.439       .  S
C1372      C1373   1.412       .  A
C1373      C1374   1.402       .  A
C1373      H1376   1.084       .  S
C1374      C1377   1.445       .  S
C1377      N1379   1.157       .  T
C1378      N1380   1.156       .  T
C1381      C1382   1.405       .  A
C1381      C1386   1.416       .  A
C1382      C1383   1.405       .  A
C1382      H1387   1.085       .  S
C1383      C1384   1.411       .  A
C1383      C1390   1.444       .  S
C1384      C1385   1.399       .  A
C1385      C1386   1.392       .  A
C1385      H1388   1.087       .  S
C1386      C1389   1.445       .  S
C1389      N1391   1.157       .  T
C1390      N1392   1.157       .  T
C1393      C1394   1.407       .  A
C1393      C1398   1.411       .  A
C1394      C1395   1.398       .  A
C1394      H1399   1.085       .  S
C1395      C1396   1.407       .  A
C1395      C1402   1.444       .  S
C1397      H1400   1.083       .  S
C1401      N1403   1.153       .  T
C1402      N1404   1.157       .  T
C1405      C1406   1.407       .  A
C1405      C1410   1.415       .  A
C1406      C1407   1.396       .  A
C1406      H1411   1.085       .  S
C1407      C1408   1.411       .  A
C1407      C1414   1.445       .  S
C1409      H1412   1.086       .  S
C1414      N1416   1.157       .  T
C1417      C1418   1.405       .  A
C1418      C1419   1.392       .  A
C1418      H1423   1.083       .  S
C1419      C1420   1.416       .  A
C1419      C1426   1.446       .  S
C1420      C1421   1.407       .  A
C1422      C1425   1.444       .  S
C1425      N1427   1.157       .  T
C1426      N1428   1.157       .  T
C1429      C1430   1.391       .  A
C1429      C1434   1.405       .  A
C1429      C1872   1.469       .  S
C1430      C1431   1.394       .  A
C1430      H1435   1.085       .  S
C1431      C1432   1.397       .  A
C1431      C1884   1.474       .  S
C1432      C1433   1.409       .  A
C1432      H1436   1.083       .  S
C1433      C1434   1.411       .  A
C1433      C1893   1.495       .  S
C1434      H1437   1.083       .  S
C1438      C1439   1.415       .  A
C1438      C1443   1.406       .  A
C1438      C1595   1.505       .  S
C1439      C1440   1.416       .  A
C1439      H1444   1.081       .  S
C1440      C1441   1.405       .  A
C1440      C1607   1.496       .  S
C1441      C1442   1.399       .  A
C1441      H1445   1.084       .  S
C1442      C1443   1.396       .  A
C1442      C1619   1.482       .  S
C1443      H1446   1.084       .  S
C1447      C1448   1.408       .  A
C1447      C1452   1.400       .  A
C1447      C1586   1.479       .  S
C1448      C1449   1.411       .  A
C1448      H1453   1.084       .  S
C1449      C1450   1.408       .  A
C1449      C1574   1.496       .  S
C1450      C1451   1.405       .  A
C1450      H1454   1.084       .  S
C1451      C1452   1.397       .  A
C1451      C1562   1.476       .  S
C1452      H1455   1.084       .  S
C1456      C1457   1.406       .  A
C1456      C1461   1.399       .  A
C1456      C1550   1.489       .  S
C1457      C1458   1.399       .  A
C1457      H1462   1.082       .  S
C1458      C1459   1.406       .  A
C1458      C1523   1.487       .  S
C1459      C1460   1.406       .  A
C1459      H1463   1.082       .  S
C1460      C1461   1.405       .  A
C1460      C1535   1.492       .  S
C1461      H1464   1.083       .  S
O1465      C1473   1.258       .  A
O1466      C1474   1.274       .  A
O1466     Co1486   1.999       .  S
O1467      C1475   1.257       .  A
O1467     Co1487   1.944       .  S
O1468      C1714   1.265       .  A
O1468     Co1488   1.901       .  S
O1469      C1475   1.275       .  A
O1470     Co1485   2.104       .  S
O1471      C1474   1.274       .  A
O1472      C1473   1.249       .  A
O1472     Co1487   1.958       .  S
C1473      C1658   1.487       .  S
C1474      C1631   1.479       .  S
C1475      C1559   1.480       .  S
C1476      C1520   1.477       .  S
C1476      O1706   1.265   1_554  A
O1477      C1490   1.267   1_455  A
O1478     Co1486   1.963       .  S
O1479      C1492   1.278       .  A
O1480      C1493   1.264       .  A
O1480     Co1488   2.005       .  S
O1481      C1493   1.264       .  A
O1482      C1492   1.272       .  A
O1482     Co1485   1.977       .  S
O1483      C1490   1.292       .  A
O1483     Co1488   2.078       .  S
O1484     Co1487   2.023       .  S
Co1488     O1489   1.999   1_655  S
C1490      C1643   1.483       .  S
C1491      C1505   1.454       .  S
C1492      C1583   1.480       .  S
C1493      C1571   1.487       .  S
O1494      C1502   1.274       .  A
O1495      C1503   1.292       .  A
O1495     Co1515   2.090       .  S
O1496      C1504   1.249       .  A
O1496     Co1516   1.960       .  S
O1497      C1505   1.265   1_545  A
O1497     Co1517   1.961   1_445  S
O1498      C1504   1.261       .  A
O1499     Co1514   2.031       .  S
O1500      C1503   1.268       .  A
O1501      C1502   1.260       .  A
O1501     Co1516   1.964       .  S
C1502      C1622   1.470       .  S
C1503      C1598   1.476       .  S
C1504      C1526   1.494       .  S
O1506      C1519   1.251       .  A
O1507     Co1515   1.957       .  S
O1508      C1521   1.269   1_545  A
O1509      C1522   1.291       .  A
O1509     Co1517   2.079       .  S
O1510      C1522   1.266   1_545  A
O1511      C1521   1.253       .  A
O1511     Co1514   1.944       .  S
O1512      C1519   1.269       .  A
O1512     Co1517   2.043       .  S
O1513     Co1516   2.053       .  S
Co1517     O1518   2.001   1_655  S
C1519      C1610   1.500       .  S
C1521      C1547   1.474       .  S
C1522      C1538   1.486       .  S
C1523      C1524   1.400       .  A
C1523      C1528   1.412       .  A
C1524      C1525   1.395       .  A
C1524      H1529   1.084       .  S
C1525      C1526   1.421       .  A
C1525      C1532   1.447       .  S
C1526      C1527   1.410       .  A
C1527      C1528   1.407       .  A
C1527      H1530   1.083       .  S
C1528      C1531   1.443       .  S
C1531      N1533   1.157       .  T
C1532      N1534   1.158       .  T
C1535      C1536   1.407       .  A
C1535      C1540   1.416       .  A
C1536      C1537   1.398       .  A
C1536      H1541   1.086       .  S
C1537      C1538   1.414       .  A
C1537      C1544   1.441       .  S
C1538      C1539   1.407       .  A
C1539      C1540   1.397       .  A
C1539      H1542   1.086       .  S
C1540      C1543   1.444       .  S
C1543      N1545   1.157       .  T
C1547      C1548   1.404       .  A
C1547      C1552   1.407       .  A
C1548      C1549   1.390       .  A
C1548      H1553   1.085       .  S
C1549      C1550   1.414       .  A
C1549      C1556   1.446       .  S
C1550      C1551   1.414       .  A
C1551      C1552   1.404       .  A
C1551      H1554   1.083       .  S
C1552      C1555   1.442       .  S
C1556      N1558   1.157       .  T
C1559      C1560   1.407       .  A
C1559      C1564   1.414       .  A
C1560      C1561   1.407       .  A
C1560      H1565   1.083       .  S
C1561      C1562   1.409       .  A
C1561      C1568   1.443       .  S
C1562      C1563   1.399       .  A
C1563      C1564   1.395       .  A
C1563      H1566   1.084       .  S
C1564      C1567   1.445       .  S
C1567      N1569   1.157       .  T
C1568      N1570   1.157       .  T
C1571      C1572   1.403       .  A
C1571      C1576   1.415       .  A
C1572      C1573   1.407       .  A
C1572      H1577   1.085       .  S
C1573      C1574   1.417       .  A
C1573      C1580   1.444       .  S
C1574      C1575   1.404       .  A
C1575      C1576   1.405       .  A
C1575      H1578   1.085       .  S
C1576      C1579   1.445       .  S
C1580      N1582   1.157       .  T
C1583      C1584   1.407       .  A
C1583      C1588   1.414       .  A
C1584      C1585   1.410       .  A
C1584      H1589   1.085       .  S
C1585      C1586   1.411       .  A
C1585      C1592   1.442       .  S
C1586      C1587   1.397       .  A
C1587      C1588   1.394       .  A
C1587      H1590   1.087       .  S
C1588      C1591   1.440       .  S
C1591      N1593   1.156       .  T
C1592      N1594   1.157       .  T
C1595      C1596   1.411       .  A
C1595      C1600   1.418       .  A
C1596      C1597   1.392       .  A
C1596      H1601   1.080       .  S
C1597      C1598   1.405       .  A
C1598      C1599   1.405       .  A
C1599      C1600   1.410       .  A
C1599      H1602   1.083       .  S
C1600      C1603   1.443       .  S
C1603      N1605   1.157       .  T
C1604      N1606   1.157       .  T
C1607      C1608   1.408       .  A
C1607      C1612   1.411       .  A
C1608      C1609   1.407       .  A
C1608      H1613   1.084       .  S
C1609      C1610   1.413       .  A
C1609      C1616   1.440       .  S
C1610      C1611   1.412       .  A
C1611      C1612   1.402       .  A
C1611      H1614   1.084       .  S
C1612      C1615   1.445       .  S
C1615      N1617   1.157       .  T
C1616      N1618   1.156       .  T
C1619      C1620   1.405       .  A
C1619      C1624   1.416       .  A
C1620      C1621   1.405       .  A
C1620      H1625   1.085       .  S
C1621      C1622   1.411       .  A
C1621      C1628   1.444       .  S
C1622      C1623   1.399       .  A
C1623      C1624   1.392       .  A
C1623      H1626   1.087       .  S
C1624      C1627   1.445       .  S
C1627      N1629   1.157       .  T
C1628      N1630   1.157       .  T
C1631      C1632   1.407       .  A
C1631      C1636   1.411       .  A
C1632      C1633   1.398       .  A
C1632      H1637   1.085       .  S
C1633      C1634   1.407       .  A
C1633      C1640   1.444       .  S
C1634      C1873   1.397       .  A
C1634      C1667   1.469       .  S
C1635      C1872   1.397       .  A
C1635      C1874   1.397       .  A
C1635      H1638   1.083   1_556  S
C1636      C1873   1.397       .  A
C1636      C1877   1.435       .  S
C1639      C1874   1.435   1_554  S
C1639      N1641   1.153       .  T
C1640      N1642   1.157       .  T
C1643      C1644   1.407       .  A
C1643      C1648   1.415       .  A
C1644      C1645   1.396       .  A
C1644      H1649   1.085       .  S
C1645      C1646   1.411       .  A
C1645      C1652   1.445       .  S
C1646      C1885   1.399       .  A
C1646      C1669   1.474       .  S
C1647      C1884   1.399       .  A
C1647      C1886   1.394       .  A
C1647      H1650   1.086   1_556  S
C1648      C1885   1.394       .  A
C1648      C1889   1.436       .  S
C1651      C1886   1.436   1_554  S
C1652      N1654   1.157       .  T
C1655      C1656   1.405       .  A
C1655      C1898   1.415       .  A
C1655      C1671   1.495       .  S
C1656      C1657   1.392       .  A
C1656      H1661   1.083       .  S
C1657      C1658   1.416       .  A
C1657      C1664   1.446       .  S
C1658      C1659   1.407       .  A
C1659      C1898   1.404       .  A
C1659      H1900   1.082       .  S
C1660      C1893   1.415       .  A
C1660      C1897   1.404       .  A
C1660      C1663   1.444   1_556  S
H1662      C1897   1.082       .  S
C1663      N1665   1.157       .  T
C1664      N1666   1.157       .  T
C1667      C1668   1.391       .  A
C1667      C1672   1.405       .  A
C1668      C1669   1.394       .  A
C1668      H1673   1.085       .  S
C1669      C1670   1.397       .  A
C1670      C1671   1.409       .  A
C1670      H1674   1.083       .  S
C1671      C1672   1.411       .  A
C1672      H1675   1.083       .  S
C1676      C1677   1.415       .  A
C1676      C1681   1.406       .  A
C1676      C1833   1.505       .  S
C1677      C1678   1.416       .  A
C1677      H1682   1.081       .  S
C1678      C1679   1.405       .  A
C1678      C1845   1.496       .  S
C1679      C1680   1.399       .  A
C1679      H1683   1.084       .  S
C1680      C1681   1.396       .  A
C1680      C1857   1.482       .  S
C1681      H1684   1.084       .  S
C1685      C1686   1.408       .  A
C1685      C1690   1.400       .  A
C1685      C1824   1.479       .  S
C1686      C1687   1.411       .  A
C1686      H1691   1.084       .  S
C1687      C1688   1.408       .  A
C1687      C1812   1.496       .  S
C1688      C1689   1.405       .  A
C1688      H1692   1.084       .  S
C1689      C1690   1.397       .  A
C1689      C1800   1.476       .  S
C1690      H1693   1.084       .  S
C1694      C1695   1.406       .  A
C1694      C1699   1.399       .  A
C1694      C1788   1.489       .  S
C1695      C1696   1.399       .  A
C1695      H1700   1.082       .  S
C1696      C1697   1.406       .  A
C1696      C1761   1.487       .  S
C1697      C1698   1.406       .  A
C1697      H1701   1.082       .  S
C1698      C1699   1.405       .  A
C1698      C1773   1.492       .  S
C1699      H1702   1.083       .  S
O1703      C1711   1.258       .  A
O1704      C1712   1.274       .  A
O1704     Co1724   1.999       .  S
O1705      C1713   1.257       .  A
O1705     Co1725   1.944       .  S
O1706     Co1726   1.901       .  S
O1707      C1713   1.275       .  A
O1708     Co1723   2.104       .  S
O1709      C1712   1.274       .  A
O1710      C1711   1.249       .  A
O1710     Co1725   1.958       .  S
C1711      C1896   1.487       .  S
C1712      C1869   1.479       .  S
C1713      C1797   1.480       .  S
C1714      C1758   1.477       .  S
O1715      C1728   1.267   1_455  A
O1716     Co1724   1.963       .  S
O1717      C1730   1.278       .  A
O1718      C1731   1.264       .  A
O1718     Co1726   2.005       .  S
O1719      C1731   1.264       .  A
O1720      C1730   1.272       .  A
O1720     Co1723   1.977       .  S
O1721      C1728   1.292       .  A
O1721     Co1726   2.078       .  S
O1722     Co1725   2.023       .  S
Co1726     O1727   1.999   1_655  S
C1728      C1881   1.483       .  S
C1729      C1743   1.454       .  S
C1730      C1821   1.480       .  S
C1731      C1809   1.487       .  S
O1732      C1740   1.274       .  A
O1733      C1741   1.292       .  A
O1733     Co1753   2.090       .  S
O1734      C1742   1.249       .  A
O1734     Co1754   1.960       .  S
O1735      C1743   1.265   1_545  A
O1735     Co1755   1.961   1_445  S
O1736      C1742   1.261       .  A
O1737     Co1752   2.031       .  S
O1738      C1741   1.268       .  A
O1739      C1740   1.260       .  A
O1739     Co1754   1.964       .  S
C1740      C1860   1.470       .  S
C1741      C1836   1.476       .  S
C1742      C1764   1.494       .  S
O1744      C1757   1.251       .  A
O1745     Co1753   1.957       .  S
O1746      C1759   1.269   1_545  A
O1747      C1760   1.291       .  A
O1747     Co1755   2.079       .  S
O1748      C1760   1.266   1_545  A
O1749      C1759   1.253       .  A
O1749     Co1752   1.944       .  S
O1750      C1757   1.269       .  A
O1750     Co1755   2.043       .  S
O1751     Co1754   2.053       .  S
Co1755     O1756   2.001   1_655  S
C1757      C1848   1.500       .  S
C1759      C1785   1.474       .  S
C1760      C1776   1.486       .  S
C1761      C1762   1.400       .  A
C1761      C1766   1.412       .  A
C1762      C1763   1.395       .  A
C1762      H1767   1.084       .  S
C1763      C1764   1.421       .  A
C1763      C1770   1.447       .  S
C1764      C1765   1.410       .  A
C1765      C1766   1.407       .  A
C1765      H1768   1.083       .  S
C1766      C1769   1.443       .  S
C1769      N1771   1.157       .  T
C1770      N1772   1.158       .  T
C1773      C1774   1.407       .  A
C1773      C1778   1.416       .  A
C1774      C1775   1.398       .  A
C1774      H1779   1.086       .  S
C1775      C1776   1.414       .  A
C1775      C1782   1.441       .  S
C1776      C1777   1.407       .  A
C1777      C1778   1.397       .  A
C1777      H1780   1.086       .  S
C1778      C1781   1.444       .  S
C1781      N1783   1.157       .  T
C1785      C1786   1.404       .  A
C1785      C1790   1.407       .  A
C1786      C1787   1.390       .  A
C1786      H1791   1.085       .  S
C1787      C1788   1.414       .  A
C1787      C1794   1.446       .  S
C1788      C1789   1.414       .  A
C1789      C1790   1.404       .  A
C1789      H1792   1.083       .  S
C1790      C1793   1.442       .  S
C1794      N1796   1.157       .  T
C1797      C1798   1.407       .  A
C1797      C1802   1.414       .  A
C1798      C1799   1.407       .  A
C1798      H1803   1.083       .  S
C1799      C1800   1.409       .  A
C1799      C1806   1.443       .  S
C1800      C1801   1.399       .  A
C1801      C1802   1.395       .  A
C1801      H1804   1.084       .  S
C1802      C1805   1.445       .  S
C1805      N1807   1.157       .  T
C1806      N1808   1.157       .  T
C1809      C1810   1.403       .  A
C1809      C1814   1.415       .  A
C1810      C1811   1.407       .  A
C1810      H1815   1.085       .  S
C1811      C1812   1.417       .  A
C1811      C1818   1.444       .  S
C1812      C1813   1.404       .  A
C1813      C1814   1.405       .  A
C1813      H1816   1.085       .  S
C1814      C1817   1.445       .  S
C1818      N1820   1.157       .  T
C1821      C1822   1.407       .  A
C1821      C1826   1.414       .  A
C1822      C1823   1.410       .  A
C1822      H1827   1.085       .  S
C1823      C1824   1.411       .  A
C1823      C1830   1.442       .  S
C1824      C1825   1.397       .  A
C1825      C1826   1.394       .  A
C1825      H1828   1.087       .  S
C1826      C1829   1.440       .  S
C1829      N1831   1.156       .  T
C1830      N1832   1.157       .  T
C1833      C1834   1.411       .  A
C1833      C1838   1.418       .  A
C1834      C1835   1.392       .  A
C1834      H1839   1.080       .  S
C1835      C1836   1.405       .  A
C1836      C1837   1.405       .  A
C1837      C1838   1.410       .  A
C1837      H1840   1.083       .  S
C1838      C1841   1.443       .  S
C1841      N1843   1.157       .  T
C1842      N1844   1.157       .  T
C1845      C1846   1.408       .  A
C1845      C1850   1.411       .  A
C1846      C1847   1.407       .  A
C1846      H1851   1.084       .  S
C1847      C1848   1.413       .  A
C1847      C1854   1.440       .  S
C1848      C1849   1.412       .  A
C1849      C1850   1.402       .  A
C1849      H1852   1.084       .  S
C1850      C1853   1.445       .  S
C1853      N1855   1.157       .  T
C1854      N1856   1.156       .  T
C1857      C1858   1.405       .  A
C1857      C1862   1.416       .  A
C1858      C1859   1.405       .  A
C1858      H1863   1.085       .  S
C1859      C1860   1.411       .  A
C1859      C1866   1.444       .  S
C1860      C1861   1.399       .  A
C1861      C1862   1.392       .  A
C1861      H1864   1.087       .  S
C1862      C1865   1.445       .  S
C1865      N1867   1.157       .  T
C1866      N1868   1.157       .  T
C1869      C1870   1.407       .  A
C1869      C1874   1.411       .  A
C1870      C1871   1.398       .  A
C1870      H1875   1.085       .  S
C1871      C1872   1.407       .  A
C1871      C1878   1.444       .  S
C1873      H1876   1.083       .  S
C1877      N1879   1.153       .  T
C1878      N1880   1.157       .  T
C1881      C1882   1.407       .  A
C1881      C1886   1.415       .  A
C1882      C1883   1.396       .  A
C1882      H1887   1.085       .  S
C1883      C1884   1.411       .  A
C1883      C1890   1.445       .  S
C1885      H1888   1.086       .  S
C1890      N1892   1.157       .  T
C1893      C1894   1.405       .  A
C1894      C1895   1.392       .  A
C1894      H1899   1.083       .  S
C1895      C1896   1.416       .  A
C1895      C1902   1.446       .  S
C1896      C1897   1.407       .  A
C1898      C1901   1.444       .  S
C1901      N1903   1.157       .  T
C1902      N1904   1.157       .  T
