geometry optimzed in LAMMPS
_audit_creation_date              2020-11-30 
_audit_creation_method            'lammps2cif' 
_symmetry_space_group_name_H-M    'P1' 
_symmetry_Int_Tables_number       1 
_symmetry_cell_setting            triclinic 
loop_ 
_symmetry_equiv_pos_as_xyz 
  x,y,z 
_cell_length_a                    40.39832844369145 
_cell_length_b                    40.389242833016354 
_cell_length_c                    32.2622227744914 
_cell_angle_alpha                 89.99177826922488 
_cell_angle_beta                  90.00439148770593 
_cell_angle_gamma                 120.01440125759052 
loop_ 
_atom_site_label 
_atom_site_type_symbol 
_atom_site_fract_x 
_atom_site_fract_y 
_atom_site_fract_z 
_atom_site_charge 
C1          C  0.18745794  0.09126851  0.97787214     0.02010
C2          C  0.20764942  0.13130413  0.98021769    -0.14140
C3          C  0.24767655  0.15139625  0.97799639    -0.00490
C4          C  0.26753222  0.13122433  0.97640012    -0.12670
C5          C  0.24766805  0.09106638  0.97607560     0.02000
C6          C  0.20751996  0.07128461  0.97626832    -0.12090
H7          H  0.19221373  0.14683925  0.97840481     0.07600
H8          H  0.29837968  0.14693934  0.97338484     0.05130
H9          H  0.19175522  0.04043648  0.97313460     0.04970
C10         C  0.18733896  0.09095781  0.35812982     0.02010
C11         C  0.20752902  0.13099394  0.35577609    -0.14140
C12         C  0.24755701  0.15108941  0.35801888    -0.00490
C13         C  0.26741692  0.13092132  0.35964134    -0.12670
C14         C  0.24755525  0.09076473  0.35997932     0.02000
C15         C  0.20740704  0.07098075  0.35976194    -0.12090
H16         H  0.19208979  0.14652562  0.35757429     0.07600
H17         H  0.29826311  0.14663708  0.36267710     0.05130
H18         H  0.19164366  0.04013298  0.36290463     0.04970
C19         C  0.15562047  0.24382515  0.85748756     0.02010
C20         C  0.13545642  0.20379326  0.85505635    -0.14140
C21         C  0.09541820  0.18366924  0.85707527    -0.00490
C22         C  0.07552865  0.20382361  0.85851525    -0.12670
C23         C  0.09537179  0.24398679  0.85892393     0.02000
C24         C  0.13552985  0.26378523  0.85893704    -0.12090
H25         H  0.15090354  0.18827454  0.85697515     0.07600
H26         H  0.04467160  0.18809419  0.86140162     0.05130
H27         H  0.15127364  0.29462755  0.86212934     0.04970
C28         C  0.15551935  0.24345338  0.47870268     0.02010
C29         C  0.13542287  0.26340749  0.47722637    -0.14140
C30         C  0.09526553  0.24360331  0.47716623    -0.00490
C31         C  0.07542875  0.20343958  0.47753614    -0.12670
C32         C  0.09532277  0.18328922  0.47900282     0.02000
C33         C  0.13535856  0.20341823  0.48109337    -0.12090
H34         H  0.15116562  0.29425304  0.47405860     0.07600
H35         H  0.04457635  0.18770901  0.47459610     0.05130
H36         H  0.15081336  0.18790692  0.47918934     0.04970
N37         N  0.31833958  0.32216917  0.01891269    -0.07240
N38         N  0.31125885  0.30694857  0.05638834    -0.59360
N39         N  0.31355941  0.05799053  0.96688893    -0.06920
N40         N  0.30727510  0.08697336  0.97002894    -0.61480
N41         N  0.28107451  0.02537059  0.96716795    -0.06510
N42         N  0.25197542  0.03147434  0.97045961    -0.59330
N43         N  0.01730326  0.02173573  0.01875551    -0.06190
N44         N  0.03263873  0.02964193  0.05613255    -0.61840
C45         C  0.00823749  0.33236707  0.07902106     0.94940
C46         C  0.26873560  0.07003793  0.97219629     0.94720
N47         N  0.06389303  0.08634752  0.87475947    -0.07420
N48         N  0.07955963  0.11568532  0.84888635    -0.59930
N49         N  0.09029979  0.06022496  0.96014148    -0.05540
N50         N  0.11961158  0.07573522  0.98603314    -0.61250
N51         N  0.09959800  0.04864152  0.92623942    -0.07450
N52         N  0.13493960  0.05524597  0.92870551    -0.60200
N53         N  0.05235809  0.09571036  0.90864662    -0.05180
N54         N  0.05915458  0.13113050  0.90618123    -0.61270
Mn55       Mn  0.03541283  0.05963697  0.96427849     1.18440
C56         C  0.07556811  0.14307950  0.86861458     0.97020
C57         C  0.14690947  0.07160160  0.96629079     0.97690
N58         N  0.24344576  0.28638604  0.90930911    -0.07470
N59         N  0.20807484  0.27972375  0.90685345    -0.63780
N60         N  0.29078088  0.23943731  0.92661452    -0.06270
N61         N  0.28389936  0.20398322  0.92893808    -0.64450
N62         N  0.27936028  0.24877816  0.96061121    -0.06980
N63         N  0.26366808  0.21938522  0.98640418    -0.64050
N64         N  0.25278686  0.27495687  0.87532761    -0.05870
N65         N  0.22350562  0.25950174  0.84939639    -0.64740
Mn66       Mn  0.27983485  0.30360836  0.96474324     1.10660
C67         C  0.19615346  0.26349698  0.86919122     0.98240
C68         C  0.26753870  0.19198905  0.96651983     0.98320
N69         N  0.06203668  0.30972250  0.86820861    -0.06990
N70         N  0.09110024  0.30357778  0.86480403    -0.62360
N71         N  0.32568818  0.31386753  0.81684237    -0.06300
N72         N  0.31003560  0.30659582  0.77961081    -0.59090
N73         N  0.02500542  0.01307285  0.81671328    -0.07620
N74         N  0.03223782  0.02848890  0.77937853    -0.61930
N75         N  0.02951150  0.27714503  0.86827517    -0.06600
N76         N  0.03574829  0.24813556  0.86492189    -0.59110
Mn77       Mn  0.06336390  0.03148274  0.87077993     1.20190
Mn78       Mn  0.30765686  0.27562198  0.87106346     1.10090
Cl79       Cl  0.00490290  0.00090693  0.91773428    -0.87080
C80         C  0.07429606  0.26502370  0.86281425     0.95250
C81         C  0.33482161  0.00379819  0.75685781     0.95050
N82         N  0.09946908  0.04826632  0.40976002    -0.07240
N83         N  0.13482208  0.05490367  0.40729397    -0.59360
N84         N  0.05227309  0.09535088  0.42739175    -0.06920
N85         N  0.05907550  0.13077300  0.42986589    -0.61480
N86         N  0.06380284  0.08597218  0.46127806    -0.06510
N87         N  0.07947514  0.11530081  0.48715591    -0.59330
N88         N  0.09015448  0.05984312  0.37585629    -0.06190
N89         N  0.11947167  0.07538976  0.34997019    -0.61840
C90         C  0.14678690  0.07127818  0.36971289     0.94940
C91         C  0.07549142  0.14270685  0.46743394     0.94720
N92         N  0.28092544  0.02504849  0.36899540    -0.07420
N93         N  0.25183865  0.03116909  0.36569406    -0.59930
N94         N  0.01703535  0.02133057  0.31728381    -0.05540
N95         N  0.03223337  0.02925532  0.27984343    -0.61190
N96         N  0.31803164  0.32179953  0.31716994    -0.07450
N97         N  0.31077367  0.30663414  0.27966706    -0.60200
N98         N  0.31342181  0.05765806  0.36922319    -0.05180
N99         N  0.30715565  0.08665185  0.36604405    -0.61270
Mn100      Mn  0.03526123  0.05926427  0.37176426     1.18440
C101        C  0.26861523  0.06973153  0.36390404     0.97020
C102        C  0.00768283  0.33204696  0.25695855     0.97690
N103        N  0.02491248  0.01266434  0.51934788    -0.07470
N104        N  0.03215796  0.02805634  0.55669010    -0.63780
N105        N  0.02940495  0.27675877  0.46774687    -0.06270
N106        N  0.03564225  0.24775032  0.47112354    -0.64450
N107        N  0.06192989  0.30933654  0.46780607    -0.06980
N108        N  0.09099354  0.30319282  0.47122826    -0.64050
N109        N  0.32560755  0.31344551  0.51923394    -0.05870
N110        N  0.30998095  0.30613366  0.55648001    -0.64740
Mn111      Mn  0.06325724  0.03109798  0.46524793     1.10660
C112        C  0.33477213  0.00332398  0.57923255     0.98240
C113        C  0.07418992  0.26463892  0.47323578     0.98320
N114        N  0.27917946  0.24844070  0.37548426    -0.06990
N115        N  0.26349389  0.21906863  0.34967187    -0.62360
N116        N  0.25268005  0.27458689  0.46082094    -0.06300
N117        N  0.22340726  0.25911189  0.48676374    -0.59090
N118        N  0.24333100  0.28605837  0.42687231    -0.07620
N119        N  0.20796697  0.27940650  0.42935981    -0.61930
N120        N  0.29064144  0.23909022  0.40944806    -0.06600
N121        N  0.28379200  0.20365006  0.40708537    -0.59110
Mn122      Mn  0.27965042  0.30327186  0.37140230     1.20190
Mn123      Mn  0.30754969  0.27523951  0.46500867     1.10090
Cl124      Cl  0.00477079  0.00054131  0.41833578    -0.87080
C125        C  0.26740769  0.19167462  0.36951223     0.95250
C126        C  0.19605439  0.26314091  0.46700817     0.95050
C127        C  0.31368691  0.01786450  0.64612986    -0.22430
C128        C  0.33420651  0.00375516  0.62459546    -0.10470
C129        C  0.02122121  0.32309071  0.64664237     0.28390
C130        C  0.02124437  0.32340520  0.68984607    -0.22430
C131        C  0.33423121  0.00421739  0.71150073    -0.10480
C132        C  0.31368873  0.01813421  0.68959234     0.28400
F133        F  0.29401701  0.03212987  0.71017852    -0.21000
H134        H  0.29789064  0.02872389  0.62931557     0.16760
H135        H  0.03703879  0.31244308  0.70651519     0.16770
F136        F  0.04081502  0.30886267  0.62627513    -0.20990
C137        C  0.01777725  0.30753329  0.18984488    -0.22430
C138        C  0.00834226  0.33179955  0.21150430    -0.10470
C139        C  0.33244805  0.02271433  0.18947473     0.28390
C140        C  0.33291247  0.02287734  0.14623175    -0.22430
C141        C  0.00900184  0.33205062  0.12446539    -0.10480
C142        C  0.01819920  0.30768481  0.14636766     0.28400
F143        F  0.02806322  0.28460889  0.12575097    -0.21000
H144        H  0.02500192  0.28875215  0.20658656     0.16760
H145        H  0.32543927  0.04155210  0.12962230     0.16770
F146        F  0.32220890  0.04562922  0.20987087    -0.20990
C147        C  0.18745794  0.42460184  0.97787214     0.02010
C148        C  0.20764943  0.46463747  0.98021769    -0.14140
C149        C  0.24767655  0.48472958  0.97799639    -0.00490
C150        C  0.26753223  0.46455767  0.97640012    -0.12670
C151        C  0.24766805  0.42439972  0.97607560     0.02000
C152        C  0.20751996  0.40461795  0.97626832    -0.12090
H153        H  0.19221374  0.48017258  0.97840481     0.07600
H154        H  0.29837968  0.48027267  0.97338484     0.05130
H155        H  0.19175522  0.37376982  0.97313460     0.04970
C156        C  0.18733896  0.42429115  0.35812982     0.02010
C157        C  0.20752902  0.46432728  0.35577609    -0.14140
C158        C  0.24755701  0.48442275  0.35801888    -0.00490
C159        C  0.26741692  0.46425465  0.35964134    -0.12670
C160        C  0.24755525  0.42409807  0.35997932     0.02000
C161        C  0.20740703  0.40431409  0.35976194    -0.12090
H162        H  0.19208979  0.47985896  0.35757429     0.07600
H163        H  0.29826311  0.47997041  0.36267710     0.05130
H164        H  0.19164366  0.37346631  0.36290463     0.04970
C165        C  0.15562048  0.57715848  0.85748756     0.02010
C166        C  0.13545642  0.53712659  0.85505635    -0.14140
C167        C  0.09541820  0.51700258  0.85707527    -0.00490
C168        C  0.07552865  0.53715694  0.85851525    -0.12670
C169        C  0.09537179  0.57732012  0.85892393     0.02000
C170        C  0.13552985  0.59711857  0.85893704    -0.12090
H171        H  0.15090354  0.52160787  0.85697515     0.07600
H172        H  0.04467160  0.52142752  0.86140162     0.05130
H173        H  0.15127364  0.62796089  0.86212934     0.04970
C174        C  0.15551936  0.57678672  0.47870267     0.02010
C175        C  0.13542288  0.59674083  0.47722636    -0.14140
C176        C  0.09526553  0.57693664  0.47716622    -0.00490
C177        C  0.07542876  0.53677292  0.47753613    -0.12670
C178        C  0.09532278  0.51662256  0.47900281     0.02000
C179        C  0.13535856  0.53675156  0.48109336    -0.12090
H180        H  0.15116562  0.62758638  0.47405859     0.07600
H181        H  0.04457636  0.52104235  0.47459609     0.05130
H182        H  0.15081337  0.52124026  0.47918933     0.04970
N183        N  0.31833959  0.65550250  0.01891269    -0.07240
N184        N  0.31125885  0.64028190  0.05638834    -0.59360
N185        N  0.31355941  0.39132387  0.96688893    -0.06920
N186        N  0.30727510  0.42030669  0.97002894    -0.61480
N187        N  0.28107452  0.35870392  0.96716795    -0.06510
N188        N  0.25197542  0.36480767  0.97045961    -0.59330
N189        N  0.01730327  0.35506906  0.01875551    -0.06190
N190        N  0.03263874  0.36297526  0.05613254    -0.61840
C191        C  0.00823748  0.66570039  0.07902106     0.94940
C192        C  0.26873561  0.40337126  0.97219628     0.94720
N193        N  0.06389304  0.41968085  0.87475947    -0.07420
N194        N  0.07955963  0.44901865  0.84888635    -0.59930
N195        N  0.09029979  0.39355830  0.96014148    -0.05540
N196        N  0.11961159  0.40906855  0.98603314    -0.61250
N197        N  0.09959801  0.38197486  0.92623941    -0.07450
N198        N  0.13493961  0.38857931  0.92870551    -0.60200
N199        N  0.05235809  0.42904369  0.90864662    -0.05180
N200        N  0.05915458  0.46446384  0.90618123    -0.61270
Mn201      Mn  0.03541284  0.39297031  0.96427849     1.18440
C202        C  0.07556811  0.47641284  0.86861458     0.97020
C203        C  0.14690948  0.40493493  0.96629079     0.97690
N204        N  0.24344576  0.61971937  0.90930911    -0.07470
N205        N  0.20807484  0.61305708  0.90685345    -0.63780
N206        N  0.29078088  0.57277064  0.92661452    -0.06270
N207        N  0.28389936  0.53731655  0.92893808    -0.64450
N208        N  0.27936028  0.58211149  0.96061120    -0.06980
N209        N  0.26366809  0.55271856  0.98640418    -0.64050
N210        N  0.25278686  0.60829021  0.87532761    -0.05870
N211        N  0.22350563  0.59283507  0.84939639    -0.64740
Mn212      Mn  0.27983485  0.63694169  0.96474324     1.10660
C213        C  0.19615346  0.59683031  0.86919122     0.98240
C214        C  0.26753871  0.52532238  0.96651982     0.98320
N215        N  0.06203668  0.64305583  0.86820861    -0.06990
N216        N  0.09110024  0.63691112  0.86480403    -0.62360
N217        N  0.32568818  0.64720087  0.81684237    -0.06300
N218        N  0.31003560  0.63992916  0.77961081    -0.59090
N219        N  0.02500542  0.34640619  0.81671327    -0.07620
N220        N  0.03223782  0.36182223  0.77937853    -0.61930
N221        N  0.02951150  0.61047836  0.86827517    -0.06600
N222        N  0.03574829  0.58146889  0.86492188    -0.59110
Mn223      Mn  0.06336390  0.36481607  0.87077993     1.20190
Mn224      Mn  0.30765686  0.60895532  0.87106346     1.10090
Cl225      Cl  0.00490291  0.33424026  0.91773428    -0.87080
C226        C  0.07429606  0.59835703  0.86281425     0.95250
C227        C  0.33482160  0.33713151  0.75685781     0.95050
N228        N  0.09946907  0.38159965  0.40976001    -0.07240
N229        N  0.13482208  0.38823701  0.40729397    -0.59360
N230        N  0.05227309  0.42868421  0.42739174    -0.06920
N231        N  0.05907550  0.46410633  0.42986589    -0.61480
N232        N  0.06380284  0.41930552  0.46127806    -0.06510
N233        N  0.07947515  0.44863415  0.48715591    -0.59330
N234        N  0.09015448  0.39317645  0.37585629    -0.06190
N235        N  0.11947167  0.40872309  0.34997019    -0.61840
C236        C  0.14678690  0.40461152  0.36971289     0.94940
C237        C  0.07549142  0.47604018  0.46743394     0.94720
N238        N  0.28092543  0.35838182  0.36899541    -0.07420
N239        N  0.25183864  0.36450242  0.36569406    -0.59930
N240        N  0.01703535  0.35466390  0.31728381    -0.05540
N241        N  0.03223337  0.36258865  0.27984342    -0.61190
N242        N  0.31803165  0.65513287  0.31716994    -0.07450
N243        N  0.31077369  0.63996748  0.27966706    -0.60200
N244        N  0.31342181  0.39099139  0.36922319    -0.05180
N245        N  0.30715565  0.41998518  0.36604405    -0.61270
Mn246      Mn  0.03526122  0.39259760  0.37176426     1.18440
C247        C  0.26861523  0.40306486  0.36390404     0.97020
C248        C  0.00768283  0.66538029  0.25695855     0.97690
N249        N  0.02491248  0.34599767  0.51934788    -0.07470
N250        N  0.03215796  0.36138968  0.55669010    -0.63780
N251        N  0.02940496  0.61009211  0.46774687    -0.06270
N252        N  0.03564226  0.58108366  0.47112354    -0.64450
N253        N  0.06192990  0.64266988  0.46780607    -0.06980
N254        N  0.09099355  0.63652616  0.47122825    -0.64050
N255        N  0.32560756  0.64677885  0.51923394    -0.05870
N256        N  0.30998095  0.63946700  0.55648001    -0.64740
Mn257      Mn  0.06325723  0.36443131  0.46524793     1.10660
C258        C  0.33477213  0.33665731  0.57923255     0.98240
C259        C  0.07418992  0.59797226  0.47323577     0.98320
N260        N  0.27917947  0.58177403  0.37548425    -0.06990
N261        N  0.26349390  0.55240197  0.34967187    -0.62360
N262        N  0.25268005  0.60792022  0.46082094    -0.06300
N263        N  0.22340727  0.59244523  0.48676373    -0.59090
N264        N  0.24333101  0.61939171  0.42687230    -0.07620
N265        N  0.20796698  0.61273984  0.42935980    -0.61930
N266        N  0.29064145  0.57242356  0.40944806    -0.06600
N267        N  0.28379201  0.53698340  0.40708538    -0.59110
Mn268      Mn  0.27965043  0.63660520  0.37140230     1.20190
Mn269      Mn  0.30754969  0.60857285  0.46500867     1.10090
Cl270      Cl  0.00477079  0.33387464  0.41833577    -0.87080
C271        C  0.26740770  0.52500796  0.36951223     0.95250
C272        C  0.19605440  0.59647425  0.46700816     0.95050
C273        C  0.31368693  0.35119785  0.64612986    -0.22430
C274        C  0.33420650  0.33708849  0.62459546    -0.10470
C275        C  0.02122122  0.65642407  0.64664237     0.28390
C276        C  0.02124438  0.65673855  0.68984607    -0.22430
C277        C  0.33423120  0.33755072  0.71150073    -0.10480
C278        C  0.31368875  0.35146757  0.68959234     0.28400
F279        F  0.29401705  0.36546325  0.71017853    -0.21000
H280        H  0.29789067  0.36205727  0.62931557     0.16760
H281        H  0.03703880  0.64577643  0.70651519     0.16770
F282        F  0.04081503  0.64219602  0.62627513    -0.20990
C283        C  0.01777728  0.64086664  0.18984488    -0.22430
C284        C  0.00834226  0.66513288  0.21150430    -0.10470
C285        C  0.33244804  0.35604766  0.18947473     0.28390
C286        C  0.33291246  0.35621067  0.14623175    -0.22430
C287        C  0.00900183  0.66538395  0.12446539    -0.10480
C288        C  0.01819923  0.64101816  0.14636766     0.28400
F289        F  0.02806328  0.61794227  0.12575097    -0.21000
H290        H  0.02500197  0.62208553  0.20658656     0.16760
H291        H  0.32543926  0.37488544  0.12962230     0.16770
F292        F  0.32220889  0.37896255  0.20987087    -0.20990
C293        C  0.18745795  0.75793518  0.97787214     0.02010
C294        C  0.20764943  0.79797080  0.98021769    -0.14140
C295        C  0.24767655  0.81806292  0.97799639    -0.00490
C296        C  0.26753223  0.79789100  0.97640012    -0.12670
C297        C  0.24766805  0.75773305  0.97607560     0.02000
C298        C  0.20751997  0.73795128  0.97626832    -0.12090
H299        H  0.19221374  0.81350591  0.97840481     0.07600
H300        H  0.29837968  0.81360601  0.97338484     0.05130
H301        H  0.19175523  0.70710315  0.97313460     0.04970
C302        C  0.18733896  0.75762448  0.35812982     0.02010
C303        C  0.20752903  0.79766061  0.35577609    -0.14140
C304        C  0.24755701  0.81775609  0.35801888    -0.00490
C305        C  0.26741693  0.79758798  0.35964133    -0.12670
C306        C  0.24755526  0.75743140  0.35997932     0.02000
C307        C  0.20740704  0.73764742  0.35976193    -0.12090
H308        H  0.19208980  0.81319229  0.35757429     0.07600
H309        H  0.29826311  0.81330375  0.36267710     0.05130
H310        H  0.19164367  0.70679965  0.36290462     0.04970
C311        C  0.15562047  0.91049182  0.85748756     0.02010
C312        C  0.13545642  0.87045993  0.85505635    -0.14140
C313        C  0.09541820  0.85033591  0.85707528    -0.00490
C314        C  0.07552865  0.87049027  0.85851525    -0.12670
C315        C  0.09537179  0.91065346  0.85892393     0.02000
C316        C  0.13552985  0.93045190  0.85893704    -0.12090
H317        H  0.15090354  0.85494121  0.85697515     0.07600
H318        H  0.04467160  0.85476086  0.86140163     0.05130
H319        H  0.15127364  0.96129422  0.86212934     0.04970
C320        C  0.15551936  0.91012005  0.47870267     0.02010
C321        C  0.13542288  0.93007416  0.47722637    -0.14140
C322        C  0.09526553  0.91026998  0.47716623    -0.00490
C323        C  0.07542876  0.87010625  0.47753613    -0.12670
C324        C  0.09532278  0.84995589  0.47900281     0.02000
C325        C  0.13535857  0.87008490  0.48109337    -0.12090
H326        H  0.15116562  0.96091971  0.47405860     0.07600
H327        H  0.04457636  0.85437568  0.47459609     0.05130
H328        H  0.15081337  0.85457359  0.47918933     0.04970
N329        N  0.31833958  0.98883584  0.01891269    -0.07240
N330        N  0.31125885  0.97361524  0.05638834    -0.59360
N331        N  0.31355941  0.72465720  0.96688893    -0.06920
N332        N  0.30727510  0.75364003  0.97002894    -0.61480
N333        N  0.28107452  0.69203726  0.96716795    -0.06510
N334        N  0.25197543  0.69814101  0.97045962    -0.59330
N335        N  0.01730327  0.68840239  0.01875551    -0.06190
N336        N  0.03263873  0.69630859  0.05613254    -0.61840
C337        C  0.00823748  0.99903373  0.07902106     0.94940
C338        C  0.26873561  0.73670460  0.97219629     0.94720
N339        N  0.06389304  0.75301419  0.87475947    -0.07420
N340        N  0.07955963  0.78235199  0.84888635    -0.59930
N341        N  0.09029979  0.72689163  0.96014148    -0.05540
N342        N  0.11961159  0.74240188  0.98603314    -0.61250
N343        N  0.09959801  0.71530819  0.92623942    -0.07450
N344        N  0.13493961  0.72191264  0.92870551    -0.60200
N345        N  0.05235809  0.76237703  0.90864662    -0.05180
N346        N  0.05915458  0.79779717  0.90618123    -0.61270
Mn347      Mn  0.03541284  0.72630364  0.96427849     1.18440
C348        C  0.07556811  0.80974617  0.86861459     0.97020
C349        C  0.14690948  0.73826826  0.96629079     0.97690
N350        N  0.24344576  0.95305271  0.90930911    -0.07470
N351        N  0.20807484  0.94639042  0.90685345    -0.63780
N352        N  0.29078088  0.90610398  0.92661452    -0.06270
N353        N  0.28389936  0.87064989  0.92893808    -0.64450
N354        N  0.27936028  0.91544483  0.96061120    -0.06980
N355        N  0.26366808  0.88605189  0.98640418    -0.64050
N356        N  0.25278686  0.94162354  0.87532761    -0.05870
N357        N  0.22350562  0.92616841  0.84939639    -0.64740
Mn358      Mn  0.27983485  0.97027502  0.96474325     1.10660
C359        C  0.19615346  0.93016365  0.86919122     0.98240
C360        C  0.26753871  0.85865572  0.96651983     0.98320
N361        N  0.06203668  0.97638917  0.86820862    -0.06990
N362        N  0.09110024  0.97024445  0.86480404    -0.62360
N363        N  0.32568818  0.98053420  0.81684237    -0.06300
N364        N  0.31003560  0.97326249  0.77961081    -0.59090
N365        N  0.02500542  0.67973952  0.81671327    -0.07620
N366        N  0.03223782  0.69515557  0.77937853    -0.61930
N367        N  0.02951150  0.94381170  0.86827517    -0.06600
N368        N  0.03574828  0.91480222  0.86492189    -0.59110
Mn369      Mn  0.06336390  0.69814940  0.87077993     1.20190
Mn370      Mn  0.30765686  0.94228865  0.87106346     1.10090
Cl371      Cl  0.00490291  0.66757359  0.91773428    -0.87080
C372        C  0.07429606  0.93169036  0.86281425     0.95250
C373        C  0.33482160  0.67046486  0.75685781     0.95050
N374        N  0.09946908  0.71493299  0.40976001    -0.07240
N375        N  0.13482209  0.72157034  0.40729397    -0.59360
N376        N  0.05227310  0.76201755  0.42739174    -0.06920
N377        N  0.05907551  0.79743967  0.42986589    -0.61480
N378        N  0.06380285  0.75263885  0.46127806    -0.06510
N379        N  0.07947515  0.78196748  0.48715591    -0.59330
N380        N  0.09015448  0.72650979  0.37585629    -0.06190
N381        N  0.11947168  0.74205643  0.34997018    -0.61840
C382        C  0.14678691  0.73794485  0.36971289     0.94940
C383        C  0.07549143  0.80937352  0.46743394     0.94720
N384        N  0.28092544  0.69171515  0.36899540    -0.07420
N385        N  0.25183865  0.69783576  0.36569406    -0.59930
N386        N  0.01703535  0.68799723  0.31728381    -0.05540
N387        N  0.03223337  0.69592198  0.27984342    -0.61190
N388        N  0.31803165  0.98846620  0.31716994    -0.07450
N389        N  0.31077368  0.97330081  0.27966706    -0.60200
N390        N  0.31342182  0.72432473  0.36922319    -0.05180
N391        N  0.30715566  0.75331852  0.36604405    -0.61270
Mn392      Mn  0.03526123  0.72593093  0.37176426     1.18440
C393        C  0.26861524  0.73639820  0.36390404     0.97020
C394        C  0.00768282  0.99871363  0.25695855     0.97690
N395        N  0.02491249  0.67933101  0.51934788    -0.07470
N396        N  0.03215797  0.69472302  0.55669010    -0.63780
N397        N  0.02940496  0.94342544  0.46774687    -0.06270
N398        N  0.03564226  0.91441699  0.47112354    -0.64450
N399        N  0.06192990  0.97600321  0.46780607    -0.06980
N400        N  0.09099354  0.96985949  0.47122826    -0.64050
N401        N  0.32560756  0.98011218  0.51923394    -0.05870
N402        N  0.30998096  0.97280033  0.55648001    -0.64740
Mn403      Mn  0.06325724  0.69776465  0.46524793     1.10660
C404        C  0.33477213  0.66999065  0.57923255     0.98240
C405        C  0.07418992  0.93130559  0.47323578     0.98320
N406        N  0.27917947  0.91510737  0.37548426    -0.06990
N407        N  0.26349390  0.88573530  0.34967187    -0.62360
N408        N  0.25268005  0.94125356  0.46082094    -0.06300
N409        N  0.22340727  0.92577857  0.48676373    -0.59090
N410        N  0.24333101  0.95272504  0.42687230    -0.07620
N411        N  0.20796698  0.94607317  0.42935981    -0.61930
N412        N  0.29064145  0.90575689  0.40944806    -0.06600
N413        N  0.28379201  0.87031673  0.40708537    -0.59110
Mn414      Mn  0.27965043  0.96993853  0.37140230     1.20190
Mn415      Mn  0.30754969  0.94190618  0.46500867     1.10090
Cl416      Cl  0.00477080  0.66720798  0.41833577    -0.87080
C417        C  0.26740770  0.85834129  0.36951223     0.95250
C418        C  0.19605440  0.92980758  0.46700817     0.95050
C419        C  0.31368693  0.68453119  0.64612985    -0.22430
C420        C  0.33420650  0.67042183  0.62459546    -0.10470
C421        C  0.02122123  0.98975741  0.64664237     0.28390
C422        C  0.02124439  0.99007189  0.68984607    -0.22430
C423        C  0.33423120  0.67088406  0.71150073    -0.10480
C424        C  0.31368874  0.68480091  0.68959234     0.28400
F425        F  0.29401705  0.69879659  0.71017852    -0.21000
H426        H  0.29789067  0.69539061  0.62931557     0.16760
H427        H  0.03703883  0.97910979  0.70651519     0.16770
F428        F  0.04081506  0.97552938  0.62627513    -0.20990
C429        C  0.01777726  0.97419997  0.18984488    -0.22430
C430        C  0.00834225  0.99846622  0.21150430    -0.10470
C431        C  0.33244805  0.68938099  0.18947472     0.28390
C432        C  0.33291247  0.68954400  0.14623175    -0.22430
C433        C  0.00900183  0.99871729  0.12446540    -0.10480
C434        C  0.01819921  0.97435150  0.14636766     0.28400
F435        F  0.02806325  0.95127559  0.12575097    -0.21000
H436        H  0.02500195  0.95541885  0.20658656     0.16760
H437        H  0.32543927  0.70821876  0.12962230     0.16770
F438        F  0.32220890  0.71229588  0.20987087    -0.20990
C439        C  0.52079127  0.09126851  0.97787214     0.02010
C440        C  0.54098276  0.13130413  0.98021769    -0.14140
C441        C  0.58100988  0.15139625  0.97799639    -0.00490
C442        C  0.60086556  0.13122433  0.97640012    -0.12670
C443        C  0.58100138  0.09106638  0.97607560     0.02000
C444        C  0.54085329  0.07128461  0.97626832    -0.12090
H445        H  0.52554707  0.14683925  0.97840482     0.07600
H446        H  0.63171301  0.14693934  0.97338484     0.05130
H447        H  0.52508855  0.04043648  0.97313460     0.04970
C448        C  0.52067229  0.09095781  0.35812982     0.02010
C449        C  0.54086236  0.13099394  0.35577608    -0.14140
C450        C  0.58089034  0.15108941  0.35801888    -0.00490
C451        C  0.60075026  0.13092131  0.35964134    -0.12670
C452        C  0.58088858  0.09076473  0.35997932     0.02000
C453        C  0.54074037  0.07098075  0.35976193    -0.12090
H454        H  0.52542313  0.14652562  0.35757429     0.07600
H455        H  0.63159644  0.14663708  0.36267710     0.05130
H456        H  0.52497699  0.04013298  0.36290462     0.04970
C457        C  0.48895381  0.24382515  0.85748756     0.02010
C458        C  0.46878976  0.20379326  0.85505635    -0.14140
C459        C  0.42875154  0.18366925  0.85707528    -0.00490
C460        C  0.40886198  0.20382361  0.85851525    -0.12670
C461        C  0.42870513  0.24398679  0.85892393     0.02000
C462        C  0.46886318  0.26378523  0.85893704    -0.12090
H463        H  0.48423687  0.18827454  0.85697515     0.07600
H464        H  0.37800493  0.18809419  0.86140162     0.05130
H465        H  0.48460698  0.29462756  0.86212934     0.04970
C466        C  0.48885269  0.24345338  0.47870267     0.02010
C467        C  0.46875621  0.26340750  0.47722636    -0.14140
C468        C  0.42859886  0.24360331  0.47716622    -0.00490
C469        C  0.40876209  0.20343958  0.47753613    -0.12670
C470        C  0.42865611  0.18328923  0.47900281     0.02000
C471        C  0.46869190  0.20341823  0.48109337    -0.12090
H472        H  0.48449895  0.29425304  0.47405859     0.07600
H473        H  0.37790969  0.18770901  0.47459609     0.05130
H474        H  0.48414670  0.18790692  0.47918933     0.04970
N475        N  0.65167292  0.32216917  0.01891269    -0.07240
N476        N  0.64459219  0.30694857  0.05638834    -0.59360
N477        N  0.64689274  0.05799053  0.96688893    -0.06920
N478        N  0.64060843  0.08697336  0.97002894    -0.61480
N479        N  0.61440785  0.02537059  0.96716795    -0.06510
N480        N  0.58530876  0.03147434  0.97045962    -0.59330
N481        N  0.35063659  0.02173572  0.01875551    -0.06190
N482        N  0.36597206  0.02964193  0.05613255    -0.61840
C483        C  0.34157080  0.33236707  0.07902106     0.94940
C484        C  0.60206894  0.07003793  0.97219629     0.94720
N485        N  0.39722637  0.08634752  0.87475947    -0.07420
N486        N  0.41289296  0.11568532  0.84888635    -0.59930
N487        N  0.42363312  0.06022496  0.96014148    -0.05540
N488        N  0.45294492  0.07573521  0.98603314    -0.61250
N489        N  0.43293133  0.04864152  0.92623942    -0.07450
N490        N  0.46827294  0.05524597  0.92870551    -0.60200
N491        N  0.38569142  0.09571036  0.90864662    -0.05180
N492        N  0.39248791  0.13113051  0.90618123    -0.61270
Mn493      Mn  0.36874616  0.05963697  0.96427849     1.18440
C494        C  0.40890145  0.14307950  0.86861459     0.97020
C495        C  0.48024281  0.07160160  0.96629080     0.97690
N496        N  0.57677909  0.28638604  0.90930912    -0.07470
N497        N  0.54140817  0.27972375  0.90685346    -0.63780
N498        N  0.62411422  0.23943731  0.92661452    -0.06270
N499        N  0.61723269  0.20398322  0.92893808    -0.64450
N500        N  0.61269362  0.24877816  0.96061121    -0.06980
N501        N  0.59700142  0.21938522  0.98640418    -0.64050
N502        N  0.58612019  0.27495688  0.87532761    -0.05870
N503        N  0.55683896  0.25950174  0.84939639    -0.64740
Mn504      Mn  0.61316819  0.30360836  0.96474325     1.10660
C505        C  0.52948679  0.26349698  0.86919123     0.98240
C506        C  0.60087204  0.19198905  0.96651983     0.98320
N507        N  0.39537002  0.30972250  0.86820862    -0.06990
N508        N  0.42443358  0.30357778  0.86480404    -0.62360
N509        N  0.65902151  0.31386753  0.81684237    -0.06300
N510        N  0.64336893  0.30659582  0.77961081    -0.59090
N511        N  0.35833875  0.01307285  0.81671328    -0.07620
N512        N  0.36557116  0.02848890  0.77937853    -0.61930
N513        N  0.36284483  0.27714503  0.86827517    -0.06600
N514        N  0.36908162  0.24813556  0.86492189    -0.59110
Mn515      Mn  0.39669723  0.03148274  0.87077993     1.20190
Mn516      Mn  0.64099019  0.27562198  0.87106346     1.10090
Cl517      Cl  0.33823624  0.00090693  0.91773428    -0.87080
C518        C  0.40762939  0.26502370  0.86281425     0.95250
C519        C  0.66815494  0.00379819  0.75685781     0.95050
N520        N  0.43280241  0.04826632  0.40976001    -0.07240
N521        N  0.46815542  0.05490367  0.40729397    -0.59360
N522        N  0.38560643  0.09535088  0.42739174    -0.06920
N523        N  0.39240884  0.13077300  0.42986589    -0.61480
N524        N  0.39713618  0.08597219  0.46127806    -0.06510
N525        N  0.41280848  0.11530081  0.48715591    -0.59330
N526        N  0.42348781  0.05984312  0.37585629    -0.06190
N527        N  0.45280501  0.07538976  0.34997018    -0.61840
C528        C  0.48012024  0.07127818  0.36971289     0.94940
C529        C  0.40882476  0.14270685  0.46743394     0.94720
N530        N  0.61425877  0.02504848  0.36899540    -0.07420
N531        N  0.58517198  0.03116909  0.36569406    -0.59930
N532        N  0.35036868  0.02133057  0.31728381    -0.05540
N533        N  0.36556670  0.02925532  0.27984342    -0.61190
N534        N  0.65136498  0.32179953  0.31716994    -0.07450
N535        N  0.64410702  0.30663414  0.27966706    -0.60200
N536        N  0.64675514  0.05765806  0.36922319    -0.05180
N537        N  0.64048898  0.08665185  0.36604405    -0.61270
Mn538      Mn  0.36859456  0.05926427  0.37176426     1.18440
C539        C  0.60194856  0.06973153  0.36390404     0.97020
C540        C  0.34101614  0.33204696  0.25695855     0.97690
N541        N  0.35824582  0.01266435  0.51934788    -0.07470
N542        N  0.36549130  0.02805635  0.55669010    -0.63780
N543        N  0.36273829  0.27675877  0.46774687    -0.06270
N544        N  0.36897559  0.24775032  0.47112354    -0.64450
N545        N  0.39526323  0.30933654  0.46780607    -0.06980
N546        N  0.42432687  0.30319282  0.47122825    -0.64050
N547        N  0.65894089  0.31344551  0.51923394    -0.05870
N548        N  0.64331429  0.30613366  0.55648001    -0.64740
Mn549      Mn  0.39659057  0.03109798  0.46524793     1.10660
C550        C  0.66810546  0.00332397  0.57923255     0.98240
C551        C  0.40752325  0.26463892  0.47323577     0.98320
N552        N  0.61251280  0.24844070  0.37548425    -0.06990
N553        N  0.59682723  0.21906863  0.34967187    -0.62360
N554        N  0.58601338  0.27458689  0.46082094    -0.06300
N555        N  0.55674060  0.25911190  0.48676373    -0.59090
N556        N  0.57666434  0.28605837  0.42687230    -0.07620
N557        N  0.54130031  0.27940650  0.42935981    -0.61930
N558        N  0.62397478  0.23909022  0.40944806    -0.06600
N559        N  0.61712534  0.20365006  0.40708537    -0.59110
Mn560      Mn  0.61298376  0.30327186  0.37140230     1.20190
Mn561      Mn  0.64088302  0.27523951  0.46500867     1.10090
Cl562      Cl  0.33810413  0.00054131  0.41833577    -0.87080
C563        C  0.60074103  0.19167462  0.36951223     0.95250
C564        C  0.52938773  0.26314091  0.46700817     0.95050
C565        C  0.64702021  0.01786446  0.64612985    -0.22430
C566        C  0.66753983  0.00375516  0.62459546    -0.10470
C567        C  0.35455456  0.32309073  0.64664237     0.28390
C568        C  0.35457772  0.32340521  0.68984607    -0.22430
C569        C  0.66756454  0.00421739  0.71150073    -0.10480
C570        C  0.64702203  0.01813418  0.68959234     0.28400
F571        F  0.62735028  0.03212981  0.71017852    -0.21000
H572        H  0.63122391  0.02872383  0.62931557     0.16760
H573        H  0.37037215  0.31244311  0.70651519     0.16770
F574        F  0.37414838  0.30886270  0.62627513    -0.20990
C575        C  0.35111060  0.30753332  0.18984489    -0.22430
C576        C  0.34167557  0.33179954  0.21150430    -0.10470
C577        C  0.66578141  0.02271435  0.18947473     0.28390
C578        C  0.66624583  0.02287736  0.14623175    -0.22430
C579        C  0.34233514  0.33205062  0.12446540    -0.10480
C580        C  0.35153256  0.30768485  0.14636766     0.28400
F581        F  0.36139662  0.28460896  0.12575098    -0.21000
H582        H  0.35833531  0.28875222  0.20658657     0.16760
H583        H  0.65877265  0.04155214  0.12962230     0.16770
F584        F  0.65554228  0.04562926  0.20987087    -0.20990
C585        C  0.52079128  0.42460184  0.97787214     0.02010
C586        C  0.54098276  0.46463747  0.98021769    -0.14140
C587        C  0.58100988  0.48472958  0.97799639    -0.00490
C588        C  0.60086556  0.46455766  0.97640012    -0.12670
C589        C  0.58100138  0.42439972  0.97607560     0.02000
C590        C  0.54085330  0.40461794  0.97626832    -0.12090
H591        H  0.52554707  0.48017258  0.97840481     0.07600
H592        H  0.63171301  0.48027267  0.97338483     0.05130
H593        H  0.52508856  0.37376982  0.97313460     0.04970
C594        C  0.52067229  0.42429114  0.35812982     0.02010
C595        C  0.54086235  0.46432727  0.35577609    -0.14140
C596        C  0.58089034  0.48442275  0.35801889    -0.00490
C597        C  0.60075025  0.46425465  0.35964134    -0.12670
C598        C  0.58088858  0.42409806  0.35997932     0.02000
C599        C  0.54074037  0.40431408  0.35976193    -0.12090
H600        H  0.52542312  0.47985895  0.35757429     0.07600
H601        H  0.63159644  0.47997041  0.36267710     0.05130
H602        H  0.52497699  0.37346631  0.36290462     0.04970
C603        C  0.48895381  0.57715848  0.85748756     0.02010
C604        C  0.46878976  0.53712660  0.85505635    -0.14140
C605        C  0.42875154  0.51700258  0.85707527    -0.00490
C606        C  0.40886198  0.53715694  0.85851525    -0.12670
C607        C  0.42870513  0.57732012  0.85892393     0.02000
C608        C  0.46886318  0.59711857  0.85893704    -0.12090
H609        H  0.48423687  0.52160788  0.85697515     0.07600
H610        H  0.37800493  0.52142752  0.86140162     0.05130
H611        H  0.48460698  0.62796089  0.86212934     0.04970
C612        C  0.48885269  0.57678672  0.47870267     0.02010
C613        C  0.46875621  0.59674083  0.47722637    -0.14140
C614        C  0.42859887  0.57693664  0.47716622    -0.00490
C615        C  0.40876209  0.53677292  0.47753613    -0.12670
C616        C  0.42865611  0.51662256  0.47900281     0.02000
C617        C  0.46869190  0.53675157  0.48109337    -0.12090
H618        H  0.48449896  0.62758638  0.47405859     0.07600
H619        H  0.37790969  0.52104235  0.47459610     0.05130
H620        H  0.48414670  0.52124026  0.47918933     0.04970
N621        N  0.65167292  0.65550250  0.01891269    -0.07240
N622        N  0.64459219  0.64028190  0.05638834    -0.59360
N623        N  0.64689275  0.39132387  0.96688893    -0.06920
N624        N  0.64060843  0.42030669  0.97002894    -0.61480
N625        N  0.61440785  0.35870392  0.96716795    -0.06510
N626        N  0.58530876  0.36480767  0.97045962    -0.59330
N627        N  0.35063659  0.35506906  0.01875551    -0.06190
N628        N  0.36597205  0.36297526  0.05613255    -0.61840
C629        C  0.34157081  0.66570039  0.07902106     0.94940
C630        C  0.60206894  0.40337126  0.97219629     0.94720
N631        N  0.39722637  0.41968085  0.87475947    -0.07420
N632        N  0.41289296  0.44901865  0.84888635    -0.59930
N633        N  0.42363312  0.39355829  0.96014148    -0.05540
N634        N  0.45294492  0.40906855  0.98603314    -0.61250
N635        N  0.43293134  0.38197485  0.92623942    -0.07450
N636        N  0.46827294  0.38857930  0.92870551    -0.60200
N637        N  0.38569142  0.42904369  0.90864662    -0.05180
N638        N  0.39248791  0.46446384  0.90618123    -0.61270
Mn639      Mn  0.36874617  0.39297031  0.96427849     1.18440
C640        C  0.40890145  0.47641284  0.86861459     0.97020
C641        C  0.48024281  0.40493493  0.96629079     0.97690
N642        N  0.57677909  0.61971937  0.90930911    -0.07470
N643        N  0.54140818  0.61305708  0.90685345    -0.63780
N644        N  0.62411422  0.57277064  0.92661452    -0.06270
N645        N  0.61723269  0.53731655  0.92893808    -0.64450
N646        N  0.61269361  0.58211149  0.96061120    -0.06980
N647        N  0.59700142  0.55271855  0.98640418    -0.64050
N648        N  0.58612019  0.60829021  0.87532761    -0.05870
N649        N  0.55683896  0.59283507  0.84939639    -0.64740
Mn650      Mn  0.61316819  0.63694169  0.96474324     1.10660
C651        C  0.52948679  0.59683031  0.86919122     0.98240
C652        C  0.60087204  0.52532238  0.96651982     0.98320
N653        N  0.39537002  0.64305583  0.86820861    -0.06990
N654        N  0.42443358  0.63691112  0.86480403    -0.62360
N655        N  0.65902152  0.64720087  0.81684237    -0.06300
N656        N  0.64336894  0.63992916  0.77961080    -0.59090
N657        N  0.35833875  0.34640619  0.81671327    -0.07620
N658        N  0.36557115  0.36182223  0.77937853    -0.61930
N659        N  0.36284483  0.61047836  0.86827517    -0.06600
N660        N  0.36908162  0.58146889  0.86492188    -0.59110
Mn661      Mn  0.39669723  0.36481607  0.87077993     1.20190
Mn662      Mn  0.64099019  0.60895532  0.87106346     1.10090
Cl663      Cl  0.33823624  0.33424026  0.91773428    -0.87080
C664        C  0.40762939  0.59835703  0.86281424     0.95250
C665        C  0.66815494  0.33713151  0.75685781     0.95050
N666        N  0.43280240  0.38159965  0.40976001    -0.07240
N667        N  0.46815541  0.38823700  0.40729397    -0.59360
N668        N  0.38560643  0.42868421  0.42739174    -0.06920
N669        N  0.39240883  0.46410633  0.42986589    -0.61480
N670        N  0.39713618  0.41930552  0.46127806    -0.06510
N671        N  0.41280848  0.44863415  0.48715591    -0.59330
N672        N  0.42348781  0.39317645  0.37585629    -0.06190
N673        N  0.45280500  0.40872309  0.34997018    -0.61840
C674        C  0.48012023  0.40461151  0.36971289     0.94940
C675        C  0.40882476  0.47604018  0.46743394     0.94720
N676        N  0.61425877  0.35838182  0.36899540    -0.07420
N677        N  0.58517198  0.36450242  0.36569406    -0.59930
N678        N  0.35036867  0.35466390  0.31728381    -0.05540
N679        N  0.36556669  0.36258865  0.27984342    -0.61190
N680        N  0.65136498  0.65513286  0.31716994    -0.07450
N681        N  0.64410702  0.63996747  0.27966706    -0.60200
N682        N  0.64675514  0.39099139  0.36922319    -0.05180
N683        N  0.64048898  0.41998518  0.36604405    -0.61270
Mn684      Mn  0.36859455  0.39259760  0.37176426     1.18440
C685        C  0.60194856  0.40306486  0.36390404     0.97020
C686        C  0.34101615  0.66538029  0.25695855     0.97690
N687        N  0.35824581  0.34599768  0.51934788    -0.07470
N688        N  0.36549130  0.36138968  0.55669010    -0.63780
N689        N  0.36273829  0.61009211  0.46774687    -0.06270
N690        N  0.36897559  0.58108366  0.47112355    -0.64450
N691        N  0.39526323  0.64266988  0.46780607    -0.06980
N692        N  0.42432688  0.63652616  0.47122826    -0.64050
N693        N  0.65894090  0.64677885  0.51923394    -0.05870
N694        N  0.64331430  0.63946700  0.55648001    -0.64740
Mn695      Mn  0.39659057  0.36443131  0.46524793     1.10660
C696        C  0.66810547  0.33665730  0.57923255     0.98240
C697        C  0.40752326  0.59797226  0.47323578     0.98320
N698        N  0.61251280  0.58177403  0.37548426    -0.06990
N699        N  0.59682723  0.55240196  0.34967187    -0.62360
N700        N  0.58601339  0.60792022  0.46082094    -0.06300
N701        N  0.55674060  0.59244523  0.48676373    -0.59090
N702        N  0.57666434  0.61939171  0.42687231    -0.07620
N703        N  0.54130032  0.61273984  0.42935981    -0.61930
N704        N  0.62397478  0.57242356  0.40944806    -0.06600
N705        N  0.61712534  0.53698339  0.40708538    -0.59110
Mn706      Mn  0.61298377  0.63660519  0.37140230     1.20190
Mn707      Mn  0.64088303  0.60857285  0.46500867     1.10090
Cl708      Cl  0.33810412  0.33387464  0.41833578    -0.87080
C709        C  0.60074102  0.52500795  0.36951224     0.95250
C710        C  0.52938773  0.59647425  0.46700817     0.95050
C711        C  0.64702028  0.35119787  0.64612985    -0.22430
C712        C  0.66753984  0.33708849  0.62459546    -0.10470
C713        C  0.35455456  0.65642408  0.64664237     0.28390
C714        C  0.35457771  0.65673856  0.68984607    -0.22430
C715        C  0.66756454  0.33755071  0.71150072    -0.10480
C716        C  0.64702210  0.35146758  0.68959234     0.28400
F717        F  0.62735041  0.36546328  0.71017852    -0.21000
H718        H  0.63122404  0.36205729  0.62931557     0.16760
H719        H  0.37037215  0.64577645  0.70651519     0.16770
F720        F  0.37414837  0.64219604  0.62627513    -0.20990
C721        C  0.35111063  0.64086666  0.18984488    -0.22430
C722        C  0.34167558  0.66513288  0.21150430    -0.10470
C723        C  0.66578146  0.35604772  0.18947472     0.28390
C724        C  0.66624588  0.35621073  0.14623175    -0.22430
C725        C  0.34233516  0.66538395  0.12446539    -0.10480
C726        C  0.35153258  0.64101818  0.14636766     0.28400
F727        F  0.36139665  0.61794230  0.12575097    -0.21000
H728        H  0.35833534  0.62208556  0.20658657     0.16760
H729        H  0.65877274  0.37488554  0.12962230     0.16770
F730        F  0.65554237  0.37896266  0.20987087    -0.20990
C731        C  0.52079128  0.75793518  0.97787213     0.02010
C732        C  0.54098276  0.79797080  0.98021769    -0.14140
C733        C  0.58100988  0.81806292  0.97799639    -0.00490
C734        C  0.60086556  0.79789100  0.97640012    -0.12670
C735        C  0.58100139  0.75773305  0.97607560     0.02000
C736        C  0.54085330  0.73795128  0.97626832    -0.12090
H737        H  0.52554707  0.81350591  0.97840481     0.07600
H738        H  0.63171301  0.81360601  0.97338484     0.05130
H739        H  0.52508856  0.70710315  0.97313460     0.04970
C740        C  0.52067229  0.75762448  0.35812982     0.02010
C741        C  0.54086236  0.79766061  0.35577609    -0.14140
C742        C  0.58089035  0.81775608  0.35801888    -0.00490
C743        C  0.60075026  0.79758798  0.35964134    -0.12670
C744        C  0.58088859  0.75743140  0.35997932     0.02000
C745        C  0.54074037  0.73764742  0.35976194    -0.12090
H746        H  0.52542313  0.81319229  0.35757429     0.07600
H747        H  0.63159644  0.81330375  0.36267710     0.05130
H748        H  0.52497700  0.70679964  0.36290463     0.04970
C749        C  0.48895381  0.91049182  0.85748756     0.02010
C750        C  0.46878975  0.87045993  0.85505635    -0.14140
C751        C  0.42875154  0.85033591  0.85707528    -0.00490
C752        C  0.40886198  0.87049027  0.85851525    -0.12670
C753        C  0.42870513  0.91065346  0.85892393     0.02000
C754        C  0.46886318  0.93045190  0.85893704    -0.12090
H755        H  0.48423687  0.85494121  0.85697515     0.07600
H756        H  0.37800493  0.85476086  0.86140163     0.05130
H757        H  0.48460698  0.96129422  0.86212934     0.04970
C758        C  0.48885269  0.91012005  0.47870268     0.02010
C759        C  0.46875621  0.93007416  0.47722637    -0.14140
C760        C  0.42859887  0.91026997  0.47716623    -0.00490
C761        C  0.40876209  0.87010625  0.47753614    -0.12670
C762        C  0.42865611  0.84995589  0.47900282     0.02000
C763        C  0.46869190  0.87008490  0.48109337    -0.12090
H764        H  0.48449895  0.96091971  0.47405859     0.07600
H765        H  0.37790969  0.85437568  0.47459610     0.05130
H766        H  0.48414670  0.85457359  0.47918934     0.04970
N767        N  0.65167292  0.98883584  0.01891269    -0.07240
N768        N  0.64459219  0.97361524  0.05638834    -0.59360
N769        N  0.64689275  0.72465720  0.96688893    -0.06920
N770        N  0.64060844  0.75364003  0.97002894    -0.61480
N771        N  0.61440785  0.69203726  0.96716795    -0.06510
N772        N  0.58530876  0.69814101  0.97045961    -0.59330
N773        N  0.35063660  0.68840239  0.01875551    -0.06190
N774        N  0.36597206  0.69630859  0.05613255    -0.61840
C775        C  0.34157080  0.99903373  0.07902106     0.94940
C776        C  0.60206894  0.73670460  0.97219629     0.94720
N777        N  0.39722637  0.75301419  0.87475947    -0.07420
N778        N  0.41289296  0.78235199  0.84888635    -0.59930
N779        N  0.42363312  0.72689163  0.96014148    -0.05540
N780        N  0.45294492  0.74240188  0.98603314    -0.61250
N781        N  0.43293134  0.71530819  0.92623941    -0.07450
N782        N  0.46827294  0.72191264  0.92870550    -0.60200
N783        N  0.38569143  0.76237703  0.90864662    -0.05180
N784        N  0.39248791  0.79779717  0.90618123    -0.61270
Mn785      Mn  0.36874617  0.72630364  0.96427849     1.18440
C786        C  0.40890145  0.80974617  0.86861459     0.97020
C787        C  0.48024281  0.73826826  0.96629079     0.97690
N788        N  0.57677909  0.95305271  0.90930912    -0.07470
N789        N  0.54140817  0.94639042  0.90685346    -0.63780
N790        N  0.62411422  0.90610398  0.92661452    -0.06270
N791        N  0.61723269  0.87064989  0.92893808    -0.64450
N792        N  0.61269361  0.91544483  0.96061120    -0.06980
N793        N  0.59700142  0.88605189  0.98640418    -0.64050
N794        N  0.58612019  0.94162354  0.87532761    -0.05870
N795        N  0.55683896  0.92616841  0.84939639    -0.64740
Mn796      Mn  0.61316818  0.97027502  0.96474325     1.10660
C797        C  0.52948679  0.93016365  0.86919123     0.98240
C798        C  0.60087204  0.85865572  0.96651982     0.98320
N799        N  0.39537001  0.97638917  0.86820862    -0.06990
N800        N  0.42443357  0.97024445  0.86480404    -0.62360
N801        N  0.65902151  0.98053420  0.81684237    -0.06300
N802        N  0.64336893  0.97326250  0.77961081    -0.59090
N803        N  0.35833875  0.67973952  0.81671327    -0.07620
N804        N  0.36557115  0.69515557  0.77937853    -0.61930
N805        N  0.36284483  0.94381170  0.86827517    -0.06600
N806        N  0.36908162  0.91480222  0.86492189    -0.59110
Mn807      Mn  0.39669723  0.69814940  0.87077992     1.20190
Mn808      Mn  0.64099019  0.94228865  0.87106346     1.10090
Cl809      Cl  0.33823624  0.66757359  0.91773428    -0.87080
C810        C  0.40762939  0.93169037  0.86281425     0.95250
C811        C  0.66815495  0.67046486  0.75685781     0.95050
N812        N  0.43280241  0.71493298  0.40976002    -0.07240
N813        N  0.46815542  0.72157034  0.40729397    -0.59360
N814        N  0.38560643  0.76201755  0.42739174    -0.06920
N815        N  0.39240884  0.79743967  0.42986589    -0.61480
N816        N  0.39713618  0.75263885  0.46127806    -0.06510
N817        N  0.41280848  0.78196748  0.48715591    -0.59330
N818        N  0.42348782  0.72650978  0.37585629    -0.06190
N819        N  0.45280501  0.74205642  0.34997019    -0.61840
C820        C  0.48012024  0.73794485  0.36971289     0.94940
C821        C  0.40882476  0.80937351  0.46743394     0.94720
N822        N  0.61425877  0.69171515  0.36899540    -0.07420
N823        N  0.58517198  0.69783575  0.36569406    -0.59930
N824        N  0.35036868  0.68799723  0.31728381    -0.05540
N825        N  0.36556670  0.69592199  0.27984342    -0.61190
N826        N  0.65136498  0.98846619  0.31716994    -0.07450
N827        N  0.64410702  0.97330081  0.27966706    -0.60200
N828        N  0.64675515  0.72432473  0.36922319    -0.05180
N829        N  0.64048899  0.75331852  0.36604405    -0.61270
Mn830      Mn  0.36859456  0.72593093  0.37176426     1.18440
C831        C  0.60194857  0.73639820  0.36390404     0.97020
C832        C  0.34101615  0.99871362  0.25695855     0.97690
N833        N  0.35824582  0.67933101  0.51934788    -0.07470
N834        N  0.36549130  0.69472302  0.55669010    -0.63780
N835        N  0.36273829  0.94342544  0.46774687    -0.06270
N836        N  0.36897559  0.91441699  0.47112355    -0.64450
N837        N  0.39526323  0.97600321  0.46780607    -0.06980
N838        N  0.42432688  0.96985949  0.47122825    -0.64050
N839        N  0.65894089  0.98011217  0.51923394    -0.05870
N840        N  0.64331428  0.97280033  0.55648001    -0.64740
Mn841      Mn  0.39659057  0.69776465  0.46524793     1.10660
C842        C  0.66810548  0.66999064  0.57923255     0.98240
C843        C  0.40752325  0.93130559  0.47323578     0.98320
N844        N  0.61251280  0.91510736  0.37548426    -0.06990
N845        N  0.59682723  0.88573530  0.34967187    -0.62360
N846        N  0.58601338  0.94125355  0.46082094    -0.06300
N847        N  0.55674060  0.92577856  0.48676373    -0.59090
N848        N  0.57666434  0.95272504  0.42687231    -0.07620
N849        N  0.54130031  0.94607317  0.42935981    -0.61930
N850        N  0.62397478  0.90575689  0.40944806    -0.06600
N851        N  0.61712534  0.87031673  0.40708538    -0.59110
Mn852      Mn  0.61298376  0.96993853  0.37140230     1.20190
Mn853      Mn  0.64088302  0.94190618  0.46500867     1.10090
Cl854      Cl  0.33810413  0.66720798  0.41833578    -0.87080
C855        C  0.60074103  0.85834129  0.36951223     0.95250
C856        C  0.52938773  0.92980758  0.46700817     0.95050
C857        C  0.64702026  0.68453117  0.64612985    -0.22430
C858        C  0.66753985  0.67042183  0.62459546    -0.10470
C859        C  0.35455459  0.98975744  0.64664237     0.28390
C860        C  0.35457775  0.99007192  0.68984607    -0.22430
C861        C  0.66756455  0.67088406  0.71150072    -0.10480
C862        C  0.64702208  0.68480089  0.68959233     0.28400
F863        F  0.62735036  0.69879656  0.71017852    -0.21000
H864        H  0.63122399  0.69539057  0.62931557     0.16760
H865        H  0.37037220  0.97910983  0.70651519     0.16770
F866        F  0.37414843  0.97552942  0.62627513    -0.20990
C867        C  0.35111061  0.97419999  0.18984488    -0.22430
C868        C  0.34167558  0.99846621  0.21150430    -0.10470
C869        C  0.66578143  0.68938103  0.18947472     0.28390
C870        C  0.66624585  0.68954404  0.14623175    -0.22430
C871        C  0.34233515  0.99871729  0.12446540    -0.10480
C872        C  0.35153257  0.97435151  0.14636766     0.28400
F873        F  0.36139663  0.95127563  0.12575097    -0.21000
H874        H  0.35833533  0.95541889  0.20658656     0.16760
H875        H  0.65877269  0.70821883  0.12962230     0.16770
F876        F  0.65554232  0.71229595  0.20987087    -0.20990
C877        C  0.85412461  0.09126851  0.97787214     0.02010
C878        C  0.87431609  0.13130413  0.98021769    -0.14140
C879        C  0.91434322  0.15139625  0.97799639    -0.00490
C880        C  0.93419889  0.13122433  0.97640013    -0.12670
C881        C  0.91433471  0.09106638  0.97607560     0.02000
C882        C  0.87418663  0.07128461  0.97626832    -0.12090
H883        H  0.85888040  0.14683925  0.97840481     0.07600
H884        H  0.96504634  0.14693934  0.97338484     0.05130
H885        H  0.85842189  0.04043648  0.97313460     0.04970
C886        C  0.85400562  0.09095781  0.35812982     0.02010
C887        C  0.87419569  0.13099394  0.35577609    -0.14140
C888        C  0.91422367  0.15108941  0.35801888    -0.00490
C889        C  0.93408359  0.13092131  0.35964133    -0.12670
C890        C  0.91422192  0.09076473  0.35997932     0.02000
C891        C  0.87407370  0.07098075  0.35976193    -0.12090
H892        H  0.85875646  0.14652562  0.35757429     0.07600
H893        H  0.96492977  0.14663708  0.36267710     0.05130
H894        H  0.85831033  0.04013297  0.36290462     0.04970
C895        C  0.82228714  0.24382515  0.85748757     0.02010
C896        C  0.80212309  0.20379326  0.85505636    -0.14140
C897        C  0.76208487  0.18366925  0.85707528    -0.00490
C898        C  0.74219532  0.20382361  0.85851525    -0.12670
C899        C  0.76203846  0.24398679  0.85892393     0.02000
C900        C  0.80219652  0.26378524  0.85893705    -0.12090
H901        H  0.81757021  0.18827454  0.85697516     0.07600
H902        H  0.71133827  0.18809419  0.86140162     0.05130
H903        H  0.81794031  0.29462756  0.86212935     0.04970
C904        C  0.82218602  0.24345338  0.47870267     0.02010
C905        C  0.80208954  0.26340749  0.47722636    -0.14140
C906        C  0.76193220  0.24360330  0.47716622    -0.00490
C907        C  0.74209542  0.20343958  0.47753613    -0.12670
C908        C  0.76198944  0.18328922  0.47900281     0.02000
C909        C  0.80202523  0.20341823  0.48109336    -0.12090
H910        H  0.81783228  0.29425304  0.47405858     0.07600
H911        H  0.71124302  0.18770901  0.47459610     0.05130
H912        H  0.81748003  0.18790692  0.47918933     0.04970
N913        N  0.98500626  0.32216917  0.01891270    -0.07240
N914        N  0.97792554  0.30694857  0.05638835    -0.59360
N915        N  0.98022608  0.05799053  0.96688893    -0.06920
N916        N  0.97394177  0.08697336  0.97002894    -0.61480
N917        N  0.94774118  0.02537059  0.96716795    -0.06510
N918        N  0.91864209  0.03147434  0.97045962    -0.59330
N919        N  0.68396993  0.02173573  0.01875551    -0.06190
N920        N  0.69930539  0.02964193  0.05613255    -0.61840
C921        C  0.67490414  0.33236707  0.07902106     0.94940
C922        C  0.93540227  0.07003793  0.97219629     0.94720
N923        N  0.73055970  0.08634752  0.87475947    -0.07420
N924        N  0.74622630  0.11568532  0.84888635    -0.59930
N925        N  0.75696646  0.06022496  0.96014148    -0.05540
N926        N  0.78627825  0.07573522  0.98603314    -0.61250
N927        N  0.76626467  0.04864152  0.92623942    -0.07450
N928        N  0.80160627  0.05524597  0.92870551    -0.60200
N929        N  0.71902476  0.09571036  0.90864662    -0.05180
N930        N  0.72582124  0.13113051  0.90618123    -0.61270
Mn931      Mn  0.70207950  0.05963697  0.96427849     1.18440
C932        C  0.74223478  0.14307950  0.86861459     0.97020
C933        C  0.81357614  0.07160160  0.96629079     0.97690
N934        N  0.91011243  0.28638604  0.90930912    -0.07470
N935        N  0.87474151  0.27972375  0.90685346    -0.63780
N936        N  0.95744755  0.23943731  0.92661452    -0.06270
N937        N  0.95056602  0.20398322  0.92893809    -0.64450
N938        N  0.94602695  0.24877816  0.96061121    -0.06980
N939        N  0.93033475  0.21938522  0.98640419    -0.64050
N940        N  0.91945352  0.27495688  0.87532762    -0.05870
N941        N  0.89017229  0.25950174  0.84939640    -0.64740
Mn942      Mn  0.94650152  0.30360836  0.96474325     1.10660
C943        C  0.86282013  0.26349698  0.86919123     0.98240
C944        C  0.93420537  0.19198905  0.96651983     0.98320
N945        N  0.72870335  0.30972250  0.86820862    -0.06990
N946        N  0.75776691  0.30357778  0.86480404    -0.62360
N947        N  0.99235485  0.31386753  0.81684238    -0.06300
N948        N  0.97670226  0.30659582  0.77961081    -0.59090
N949        N  0.69167209  0.01307286  0.81671327    -0.07620
N950        N  0.69890449  0.02848890  0.77937853    -0.61930
N951        N  0.69617817  0.27714503  0.86827517    -0.06600
N952        N  0.70241495  0.24813556  0.86492189    -0.59110
Mn953      Mn  0.73003056  0.03148274  0.87077993     1.20190
Mn954      Mn  0.97432353  0.27562198  0.87106346     1.10090
Cl955      Cl  0.67156957  0.00090693  0.91773428    -0.87080
C956        C  0.74096273  0.26502370  0.86281425     0.95250
C957        C  0.00148827  0.00379818  0.75685781     0.95050
N958        N  0.76613574  0.04826631  0.40976001    -0.07240
N959        N  0.80148875  0.05490367  0.40729397    -0.59360
N960        N  0.71893976  0.09535087  0.42739174    -0.06920
N961        N  0.72574217  0.13077299  0.42986589    -0.61480
N962        N  0.73046951  0.08597218  0.46127806    -0.06510
N963        N  0.74614181  0.11530081  0.48715591    -0.59330
N964        N  0.75682114  0.05984311  0.37585629    -0.06190
N965        N  0.78613834  0.07538975  0.34997019    -0.61840
C966        C  0.81345357  0.07127818  0.36971289     0.94940
C967        C  0.74215809  0.14270684  0.46743394     0.94720
N968        N  0.94759210  0.02504848  0.36899540    -0.07420
N969        N  0.91850531  0.03116909  0.36569405    -0.59930
N970        N  0.68370201  0.02133056  0.31728381    -0.05540
N971        N  0.69890003  0.02925532  0.27984342    -0.61190
N972        N  0.98469832  0.32179953  0.31716994    -0.07450
N973        N  0.97744036  0.30663414  0.27966706    -0.60200
N974        N  0.98008848  0.05765806  0.36922319    -0.05180
N975        N  0.97382232  0.08665185  0.36604405    -0.61270
Mn976      Mn  0.70192789  0.05926426  0.37176426     1.18440
C977        C  0.93528190  0.06973153  0.36390403     0.97020
C978        C  0.67434948  0.33204696  0.25695855     0.97690
N979        N  0.69157915  0.01266434  0.51934788    -0.07470
N980        N  0.69882463  0.02805634  0.55669010    -0.63780
N981        N  0.69607162  0.27675877  0.46774687    -0.06270
N982        N  0.70230892  0.24775032  0.47112354    -0.64450
N983        N  0.72859656  0.30933654  0.46780607    -0.06980
N984        N  0.75766021  0.30319282  0.47122825    -0.64050
N985        N  0.99227422  0.31344551  0.51923394    -0.05870
N986        N  0.97664762  0.30613366  0.55648000    -0.64740
Mn987      Mn  0.72992390  0.03109797  0.46524793     1.10660
C988        C  0.00143879  0.00332397  0.57923255     0.98240
C989        C  0.74085658  0.26463892  0.47323577     0.98320
N990        N  0.94584613  0.24844070  0.37548425    -0.06990
N991        N  0.93016056  0.21906863  0.34967187    -0.62360
N992        N  0.91934672  0.27458689  0.46082093    -0.06300
N993        N  0.89007393  0.25911189  0.48676373    -0.59090
N994        N  0.90999767  0.28605837  0.42687230    -0.07620
N995        N  0.87463364  0.27940650  0.42935980    -0.61930
N996        N  0.95730811  0.23909022  0.40944806    -0.06600
N997        N  0.95045867  0.20365006  0.40708537    -0.59110
Mn998      Mn  0.94631710  0.30327186  0.37140229     1.20190
Mn999      Mn  0.97421635  0.27523951  0.46500867     1.10090
Cl1000     Cl  0.67143746  0.00054130  0.41833578    -0.87080
C1001       C  0.93407436  0.19167462  0.36951223     0.95250
C1002       C  0.86272106  0.26314091  0.46700816     0.95050
C1003       C  0.98035358  0.01786451  0.64612986    -0.22430
C1004       C  0.00087316  0.00375515  0.62459546    -0.10470
C1005       C  0.68788788  0.32309072  0.64664237     0.28390
C1006       C  0.68791104  0.32340520  0.68984607    -0.22430
C1007       C  0.00089786  0.00421738  0.71150073    -0.10480
C1008       C  0.98035540  0.01813422  0.68959234     0.28400
F1009       F  0.96068369  0.03212990  0.71017853    -0.21000
H1010       H  0.96455732  0.02872391  0.62931557     0.16760
H1011       H  0.70370546  0.31244308  0.70651519     0.16770
F1012       F  0.70748169  0.30886267  0.62627513    -0.20990
C1013       C  0.68444388  0.30753327  0.18984488    -0.22430
C1014       C  0.67500891  0.33179955  0.21150430    -0.10470
C1015       C  0.99911475  0.02271436  0.18947473     0.28390
C1016       C  0.99957918  0.02287737  0.14623176    -0.22430
C1017       C  0.67566850  0.33205063  0.12446539    -0.10480
C1018       C  0.68486583  0.30768480  0.14636766     0.28400
F1019       F  0.69472983  0.28460886  0.12575097    -0.21000
H1020       H  0.69166853  0.28875213  0.20658656     0.16760
H1021       H  0.99210600  0.04155215  0.12962230     0.16770
F1022       F  0.98887563  0.04562927  0.20987088    -0.20990
C1023       C  0.85412461  0.42460184  0.97787214     0.02010
C1024       C  0.87431609  0.46463747  0.98021769    -0.14140
C1025       C  0.91434322  0.48472958  0.97799639    -0.00490
C1026       C  0.93419889  0.46455766  0.97640012    -0.12670
C1027       C  0.91433472  0.42439972  0.97607560     0.02000
C1028       C  0.87418663  0.40461794  0.97626832    -0.12090
H1029       H  0.85888040  0.48017258  0.97840481     0.07600
H1030       H  0.96504635  0.48027267  0.97338484     0.05130
H1031       H  0.85842189  0.37376982  0.97313460     0.04970
C1032       C  0.85400562  0.42429114  0.35812982     0.02010
C1033       C  0.87419569  0.46432727  0.35577609    -0.14140
C1034       C  0.91422368  0.48442275  0.35801888    -0.00490
C1035       C  0.93408359  0.46425465  0.35964134    -0.12670
C1036       C  0.91422192  0.42409806  0.35997932     0.02000
C1037       C  0.87407370  0.40431408  0.35976193    -0.12090
H1038       H  0.85875646  0.47985896  0.35757429     0.07600
H1039       H  0.96492977  0.47997041  0.36267710     0.05130
H1040       H  0.85831033  0.37346631  0.36290462     0.04970
C1041       C  0.82228714  0.57715848  0.85748756     0.02010
C1042       C  0.80212309  0.53712659  0.85505635    -0.14140
C1043       C  0.76208487  0.51700258  0.85707527    -0.00490
C1044       C  0.74219532  0.53715694  0.85851525    -0.12670
C1045       C  0.76203846  0.57732012  0.85892393     0.02000
C1046       C  0.80219652  0.59711857  0.85893704    -0.12090
H1047       H  0.81757021  0.52160787  0.85697515     0.07600
H1048       H  0.71133827  0.52142752  0.86140162     0.05130
H1049       H  0.81794031  0.62796089  0.86212934     0.04970
C1050       C  0.82218602  0.57678672  0.47870267     0.02010
C1051       C  0.80208955  0.59674083  0.47722636    -0.14140
C1052       C  0.76193220  0.57693664  0.47716622    -0.00490
C1053       C  0.74209542  0.53677292  0.47753613    -0.12670
C1054       C  0.76198945  0.51662256  0.47900281     0.02000
C1055       C  0.80202523  0.53675156  0.48109336    -0.12090
H1056       H  0.81783229  0.62758637  0.47405858     0.07600
H1057       H  0.71124303  0.52104235  0.47459609     0.05130
H1058       H  0.81748004  0.52124026  0.47918933     0.04970
N1059       N  0.98500626  0.65550250  0.01891269    -0.07240
N1060       N  0.97792553  0.64028190  0.05638834    -0.59360
N1061       N  0.98022608  0.39132387  0.96688893    -0.06920
N1062       N  0.97394177  0.42030669  0.97002894    -0.61480
N1063       N  0.94774119  0.35870392  0.96716796    -0.06510
N1064       N  0.91864209  0.36480767  0.97045962    -0.59330
N1065       N  0.68396993  0.35506906  0.01875550    -0.06190
N1066       N  0.69930540  0.36297527  0.05613254    -0.61840
C1067       C  0.67490414  0.66570039  0.07902106     0.94940
C1068       C  0.93540227  0.40337126  0.97219629     0.94720
N1069       N  0.73055970  0.41968085  0.87475947    -0.07420
N1070       N  0.74622630  0.44901866  0.84888635    -0.59930
N1071       N  0.75696646  0.39355830  0.96014148    -0.05540
N1072       N  0.78627825  0.40906855  0.98603314    -0.61250
N1073       N  0.76626467  0.38197486  0.92623941    -0.07450
N1074       N  0.80160627  0.38857931  0.92870551    -0.60200
N1075       N  0.71902476  0.42904369  0.90864662    -0.05180
N1076       N  0.72582124  0.46446384  0.90618123    -0.61270
Mn1077     Mn  0.70207950  0.39297031  0.96427849     1.18440
C1078       C  0.74223478  0.47641284  0.86861458     0.97020
C1079       C  0.81357614  0.40493493  0.96629079     0.97690
N1080       N  0.91011243  0.61971937  0.90930912    -0.07470
N1081       N  0.87474151  0.61305708  0.90685346    -0.63780
N1082       N  0.95744755  0.57277064  0.92661452    -0.06270
N1083       N  0.95056602  0.53731655  0.92893808    -0.64450
N1084       N  0.94602695  0.58211149  0.96061120    -0.06980
N1085       N  0.93033475  0.55271855  0.98640418    -0.64050
N1086       N  0.91945352  0.60829021  0.87532761    -0.05870
N1087       N  0.89017229  0.59283507  0.84939639    -0.64740
Mn1088     Mn  0.94650152  0.63694169  0.96474325     1.10660
C1089       C  0.86282013  0.59683031  0.86919123     0.98240
C1090       C  0.93420537  0.52532238  0.96651982     0.98320
N1091       N  0.72870335  0.64305584  0.86820862    -0.06990
N1092       N  0.75776691  0.63691112  0.86480404    -0.62360
N1093       N  0.99235485  0.64720087  0.81684237    -0.06300
N1094       N  0.97670227  0.63992916  0.77961080    -0.59090
N1095       N  0.69167209  0.34640619  0.81671327    -0.07620
N1096       N  0.69890449  0.36182223  0.77937853    -0.61930
N1097       N  0.69617817  0.61047836  0.86827517    -0.06600
N1098       N  0.70241495  0.58146889  0.86492189    -0.59110
Mn1099     Mn  0.73003056  0.36481607  0.87077993     1.20190
Mn1100     Mn  0.97432353  0.60895532  0.87106346     1.10090
Cl1101     Cl  0.67156957  0.33424026  0.91773428    -0.87080
C1102       C  0.74096273  0.59835703  0.86281425     0.95250
C1103       C  0.00148827  0.33713151  0.75685781     0.95050
N1104       N  0.76613574  0.38159965  0.40976001    -0.07240
N1105       N  0.80148875  0.38823701  0.40729397    -0.59360
N1106       N  0.71893976  0.42868421  0.42739174    -0.06920
N1107       N  0.72574217  0.46410633  0.42986589    -0.61480
N1108       N  0.73046951  0.41930552  0.46127806    -0.06510
N1109       N  0.74614182  0.44863414  0.48715591    -0.59330
N1110       N  0.75682114  0.39317645  0.37585629    -0.06190
N1111       N  0.78613834  0.40872309  0.34997018    -0.61840
C1112       C  0.81345357  0.40461151  0.36971289     0.94940
C1113       C  0.74215809  0.47604018  0.46743394     0.94720
N1114       N  0.94759210  0.35838182  0.36899539    -0.07420
N1115       N  0.91850531  0.36450242  0.36569405    -0.59930
N1116       N  0.68370201  0.35466390  0.31728381    -0.05540
N1117       N  0.69890003  0.36258865  0.27984342    -0.61190
N1118       N  0.98469832  0.65513286  0.31716994    -0.07450
N1119       N  0.97744036  0.63996748  0.27966706    -0.60200
N1120       N  0.98008848  0.39099139  0.36922319    -0.05180
N1121       N  0.97382232  0.41998518  0.36604405    -0.61270
Mn1122     Mn  0.70192789  0.39259760  0.37176426     1.18440
C1123       C  0.93528190  0.40306486  0.36390403     0.97020
C1124       C  0.67434948  0.66538029  0.25695855     0.97690
N1125       N  0.69157915  0.34599767  0.51934788    -0.07470
N1126       N  0.69882463  0.36138968  0.55669010    -0.63780
N1127       N  0.69607163  0.61009211  0.46774687    -0.06270
N1128       N  0.70230893  0.58108365  0.47112354    -0.64450
N1129       N  0.72859657  0.64266988  0.46780606    -0.06980
N1130       N  0.75766021  0.63652615  0.47122825    -0.64050
N1131       N  0.99227423  0.64677885  0.51923394    -0.05870
N1132       N  0.97664763  0.63946700  0.55648000    -0.64740
Mn1133     Mn  0.72992390  0.36443131  0.46524793     1.10660
C1134       C  0.00143879  0.33665730  0.57923255     0.98240
C1135       C  0.74085659  0.59797225  0.47323577     0.98320
N1136       N  0.94584614  0.58177403  0.37548425    -0.06990
N1137       N  0.93016057  0.55240197  0.34967187    -0.62360
N1138       N  0.91934672  0.60792022  0.46082094    -0.06300
N1139       N  0.89007394  0.59244523  0.48676373    -0.59090
N1140       N  0.90999768  0.61939171  0.42687230    -0.07620
N1141       N  0.87463365  0.61273983  0.42935980    -0.61930
N1142       N  0.95730812  0.57242356  0.40944806    -0.06600
N1143       N  0.95045868  0.53698340  0.40708538    -0.59110
Mn1144     Mn  0.94631710  0.63660520  0.37140230     1.20190
Mn1145     Mn  0.97421636  0.60857285  0.46500867     1.10090
Cl1146     Cl  0.67143746  0.33387464  0.41833577    -0.87080
C1147       C  0.93407436  0.52500796  0.36951223     0.95250
C1148       C  0.86272107  0.59647425  0.46700816     0.95050
C1149       C  0.98035361  0.35119786  0.64612986    -0.22430
C1150       C  0.00087316  0.33708848  0.62459546    -0.10470
C1151       C  0.68788793  0.65642410  0.64664237     0.28390
C1152       C  0.68791109  0.65673858  0.68984607    -0.22430
C1153       C  0.00089787  0.33755071  0.71150073    -0.10480
C1154       C  0.98035542  0.35146758  0.68959234     0.28400
F1155       F  0.96068374  0.36546328  0.71017853    -0.21000
H1156       H  0.96455736  0.36205729  0.62931557     0.16760
H1157       H  0.70370554  0.64577649  0.70651519     0.16770
F1158       F  0.70748177  0.64219608  0.62627513    -0.20990
C1159       C  0.68444390  0.64086662  0.18984488    -0.22430
C1160       C  0.67500891  0.66513287  0.21150430    -0.10470
C1161       C  0.99911479  0.35604771  0.18947473     0.28390
C1162       C  0.99957921  0.35621072  0.14623175    -0.22430
C1163       C  0.67566849  0.66538395  0.12446539    -0.10480
C1164       C  0.68486586  0.64101814  0.14636766     0.28400
F1165       F  0.69472988  0.61794223  0.12575097    -0.21000
H1166       H  0.69166858  0.62208549  0.20658656     0.16760
H1167       H  0.99210606  0.37488551  0.12962230     0.16770
F1168       F  0.98887569  0.37896263  0.20987087    -0.20990
C1169       C  0.85412461  0.75793517  0.97787214     0.02010
C1170       C  0.87431609  0.79797080  0.98021769    -0.14140
C1171       C  0.91434322  0.81806292  0.97799639    -0.00490
C1172       C  0.93419889  0.79789100  0.97640012    -0.12670
C1173       C  0.91433472  0.75773305  0.97607560     0.02000
C1174       C  0.87418663  0.73795128  0.97626832    -0.12090
H1175       H  0.85888040  0.81350591  0.97840482     0.07600
H1176       H  0.96504635  0.81360601  0.97338484     0.05130
H1177       H  0.85842189  0.70710315  0.97313461     0.04970
C1178       C  0.85400563  0.75762448  0.35812981     0.02010
C1179       C  0.87419569  0.79766061  0.35577608    -0.14140
C1180       C  0.91422368  0.81775608  0.35801888    -0.00490
C1181       C  0.93408360  0.79758798  0.35964133    -0.12670
C1182       C  0.91422192  0.75743140  0.35997931     0.02000
C1183       C  0.87407371  0.73764742  0.35976192    -0.12090
H1184       H  0.85875646  0.81319229  0.35757428     0.07600
H1185       H  0.96492978  0.81330375  0.36267710     0.05130
H1186       H  0.85831033  0.70679964  0.36290461     0.04970
C1187       C  0.82228714  0.91049182  0.85748756     0.02010
C1188       C  0.80212309  0.87045993  0.85505636    -0.14140
C1189       C  0.76208487  0.85033591  0.85707528    -0.00490
C1190       C  0.74219532  0.87049027  0.85851525    -0.12670
C1191       C  0.76203846  0.91065346  0.85892393     0.02000
C1192       C  0.80219652  0.93045190  0.85893704    -0.12090
H1193       H  0.81757021  0.85494121  0.85697516     0.07600
H1194       H  0.71133827  0.85476086  0.86140163     0.05130
H1195       H  0.81794031  0.96129422  0.86212934     0.04970
C1196       C  0.82218602  0.91012005  0.47870267     0.02010
C1197       C  0.80208954  0.93007416  0.47722636    -0.14140
C1198       C  0.76193220  0.91026997  0.47716622    -0.00490
C1199       C  0.74209542  0.87010625  0.47753613    -0.12670
C1200       C  0.76198945  0.84995589  0.47900281     0.02000
C1201       C  0.80202523  0.87008490  0.48109337    -0.12090
H1202       H  0.81783228  0.96091971  0.47405859     0.07600
H1203       H  0.71124302  0.85437568  0.47459610     0.05130
H1204       H  0.81748004  0.85457359  0.47918933     0.04970
N1205       N  0.98500625  0.98883584  0.01891270    -0.07240
N1206       N  0.97792552  0.97361524  0.05638835    -0.59360
N1207       N  0.98022608  0.72465720  0.96688894    -0.06920
N1208       N  0.97394177  0.75364002  0.97002894    -0.61480
N1209       N  0.94774119  0.69203725  0.96716796    -0.06510
N1210       N  0.91864209  0.69814100  0.97045962    -0.59330
N1211       N  0.68396993  0.68840239  0.01875551    -0.06190
N1212       N  0.69930539  0.69630859  0.05613255    -0.61840
C1213       C  0.67490414  0.99903373  0.07902106     0.94940
C1214       C  0.93540227  0.73670460  0.97219629     0.94720
N1215       N  0.73055971  0.75301419  0.87475947    -0.07420
N1216       N  0.74622630  0.78235199  0.84888635    -0.59930
N1217       N  0.75696646  0.72689163  0.96014148    -0.05540
N1218       N  0.78627825  0.74240188  0.98603315    -0.61250
N1219       N  0.76626467  0.71530819  0.92623942    -0.07450
N1220       N  0.80160627  0.72191264  0.92870551    -0.60200
N1221       N  0.71902476  0.76237703  0.90864662    -0.05180
N1222       N  0.72582125  0.79779717  0.90618123    -0.61270
Mn1223     Mn  0.70207950  0.72630364  0.96427849     1.18440
C1224       C  0.74223478  0.80974617  0.86861459     0.97020
C1225       C  0.81357615  0.73826826  0.96629080     0.97690
N1226       N  0.91011242  0.95305270  0.90930912    -0.07470
N1227       N  0.87474151  0.94639042  0.90685346    -0.63780
N1228       N  0.95744755  0.90610397  0.92661452    -0.06270
N1229       N  0.95056602  0.87064988  0.92893808    -0.64450
N1230       N  0.94602695  0.91544482  0.96061121    -0.06980
N1231       N  0.93033475  0.88605189  0.98640418    -0.64050
N1232       N  0.91945352  0.94162354  0.87532762    -0.05870
N1233       N  0.89017229  0.92616840  0.84939639    -0.64740
Mn1234     Mn  0.94650152  0.97027502  0.96474325     1.10660
C1235       C  0.86282012  0.93016365  0.86919123     0.98240
C1236       C  0.93420537  0.85865571  0.96651983     0.98320
N1237       N  0.72870335  0.97638917  0.86820861    -0.06990
N1238       N  0.75776691  0.97024445  0.86480404    -0.62360
N1239       N  0.99235484  0.98053419  0.81684238    -0.06300
N1240       N  0.97670226  0.97326249  0.77961081    -0.59090
N1241       N  0.69167209  0.67973953  0.81671328    -0.07620
N1242       N  0.69890450  0.69515557  0.77937853    -0.61930
N1243       N  0.69617816  0.94381170  0.86827517    -0.06600
N1244       N  0.70241495  0.91480222  0.86492189    -0.59110
Mn1245     Mn  0.73003057  0.69814940  0.87077993     1.20190
Mn1246     Mn  0.97432352  0.94228865  0.87106346     1.10090
Cl1247     Cl  0.67156957  0.66757359  0.91773428    -0.87080
C1248       C  0.74096273  0.93169037  0.86281425     0.95250
C1249       C  0.00148828  0.67046485  0.75685781     0.95050
N1250       N  0.76613575  0.71493298  0.40976001    -0.07240
N1251       N  0.80148875  0.72157034  0.40729396    -0.59360
N1252       N  0.71893977  0.76201754  0.42739174    -0.06920
N1253       N  0.72574217  0.79743966  0.42986589    -0.61480
N1254       N  0.73046952  0.75263885  0.46127806    -0.06510
N1255       N  0.74614182  0.78196748  0.48715590    -0.59330
N1256       N  0.75682115  0.72650978  0.37585628    -0.06190
N1257       N  0.78613834  0.74205642  0.34997018    -0.61840
C1258       C  0.81345357  0.73794484  0.36971288     0.94940
C1259       C  0.74215809  0.80937351  0.46743394     0.94720
N1260       N  0.94759211  0.69171515  0.36899540    -0.07420
N1261       N  0.91850532  0.69783576  0.36569405    -0.59930
N1262       N  0.68370201  0.68799723  0.31728381    -0.05540
N1263       N  0.69890003  0.69592198  0.27984342    -0.61190
N1264       N  0.98469832  0.98846620  0.31716994    -0.07450
N1265       N  0.97744036  0.97330081  0.27966706    -0.60200
N1266       N  0.98008848  0.72432473  0.36922319    -0.05180
N1267       N  0.97382232  0.75331852  0.36604404    -0.61270
Mn1268     Mn  0.70192790  0.72593093  0.37176426     1.18440
C1269       C  0.93528190  0.73639820  0.36390403     0.97020
C1270       C  0.67434948  0.99871363  0.25695855     0.97690
N1271       N  0.69157916  0.67933101  0.51934788    -0.07470
N1272       N  0.69882465  0.69472302  0.55669010    -0.63780
N1273       N  0.69607162  0.94342544  0.46774687    -0.06270
N1274       N  0.70230892  0.91441698  0.47112354    -0.64450
N1275       N  0.72859656  0.97600321  0.46780607    -0.06980
N1276       N  0.75766021  0.96985948  0.47122825    -0.64050
N1277       N  0.99227422  0.98011217  0.51923394    -0.05870
N1278       N  0.97664762  0.97280032  0.55648001    -0.64740
Mn1279     Mn  0.72992391  0.69776464  0.46524792     1.10660
C1280       C  0.00143880  0.66999065  0.57923255     0.98240
C1281       C  0.74085659  0.93130558  0.47323577     0.98320
N1282       N  0.94584613  0.91510736  0.37548425    -0.06990
N1283       N  0.93016057  0.88573530  0.34967187    -0.62360
N1284       N  0.91934672  0.94125355  0.46082094    -0.06300
N1285       N  0.89007393  0.92577856  0.48676373    -0.59090
N1286       N  0.90999767  0.95272503  0.42687230    -0.07620
N1287       N  0.87463364  0.94607317  0.42935980    -0.61930
N1288       N  0.95730811  0.90575689  0.40944806    -0.06600
N1289       N  0.95045868  0.87031673  0.40708537    -0.59110
Mn1290     Mn  0.94631710  0.96993853  0.37140230     1.20190
Mn1291     Mn  0.97421636  0.94190618  0.46500867     1.10090
Cl1292     Cl  0.67143747  0.66720797  0.41833577    -0.87080
C1293       C  0.93407436  0.85834129  0.36951223     0.95250
C1294       C  0.86272106  0.92980758  0.46700816     0.95050
C1295       C  0.98035362  0.68453121  0.64612985    -0.22430
C1296       C  0.00087317  0.67042183  0.62459546    -0.10470
C1297       C  0.68788795  0.98975747  0.64664237     0.28390
C1298       C  0.68791111  0.99007195  0.68984607    -0.22430
C1299       C  0.00089787  0.67088406  0.71150072    -0.10480
C1300       C  0.98035543  0.68480092  0.68959234     0.28400
F1301       F  0.96068374  0.69879662  0.71017852    -0.21000
H1302       H  0.96455737  0.69539063  0.62931557     0.16760
H1303       H  0.70370558  0.97910989  0.70651520     0.16770
F1304       F  0.70748181  0.97552948  0.62627513    -0.20990
C1305       C  0.68444392  0.97419997  0.18984488    -0.22430
C1306       C  0.67500891  0.99846621  0.21150430    -0.10470
C1307       C  0.99911475  0.68938101  0.18947472     0.28390
C1308       C  0.99957917  0.68954402  0.14623175    -0.22430
C1309       C  0.67566849  0.99871729  0.12446540    -0.10480
C1310       C  0.68486587  0.97435150  0.14636766     0.28400
F1311       F  0.69472992  0.95127560  0.12575097    -0.21000
H1312       H  0.69166861  0.95541886  0.20658656     0.16760
H1313       H  0.99210599  0.70821879  0.12962230     0.16770
F1314       F  0.98887562  0.71229591  0.20987087    -0.20990
loop_ 
_geom_bond_atom_site_label_1 
_geom_bond_atom_site_label_2 
_geom_bond_distance 
_geom_bond_site_symmetry_2 
_ccdc_geom_bond_type 
C1            C2   1.402       .  A
C1            C6   1.402       .  A
C1           C57   1.467       .  S
C2            C3   1.402       .  A
C2            H7   1.085       .  S
C3            C4   1.401       .  A
C3           C68   1.467       .  S
C4            C5   1.405       .  A
C4            H8   1.084       .  S
C5            C6   1.404       .  A
C5           C46   1.478       .  S
C6            H9   1.084       .  S
C10          C11   1.402       .  A
C10          C15   1.402       .  A
C10          C90   1.467       .  S
C11          C12   1.402       .  A
C11          H16   1.085       .  S
C12          C13   1.401       .  A
C12         C125   1.467       .  S
C13          C14   1.404       .  A
C13          H17   1.084       .  S
C14          C15   1.404       .  A
C14         C101   1.478       .  S
C15          H18   1.084       .  S
C19          C20   1.402       .  A
C19          C24   1.402       .  A
C19          C67   1.467       .  S
C20          C21   1.402       .  A
C20          H25   1.085       .  S
C21          C22   1.402       .  A
C21          C56   1.468       .  S
C22          C23   1.405       .  A
C22          H26   1.083       .  S
C23          C24   1.405       .  A
C23          C80   1.479       .  S
C24          H27   1.084       .  S
C28          C29   1.402       .  A
C28          C33   1.402       .  A
C28         C126   1.467       .  S
C29          C30   1.405       .  A
C29          H34   1.084       .  S
C30          C31   1.405       .  A
C30         C113   1.479       .  S
C31          C32   1.402       .  A
C31          H35   1.083       .  S
C32          C33   1.402       .  A
C32          C91   1.468       .  S
C33          H36   1.085       .  S
N37          N38   1.321       .  A
N37         N627   1.317       .  A
N37         Mn66   2.207   1_554  S
N38         C483   1.352       .  A
N39          N41   1.315       .  A
N39          N40   1.320       .  A
N39        Mn493   2.199       .  S
N40          C46   1.353       .  A
N41          N42   1.321       .  A
N41        Mn358   2.202   1_545  S
N42          C46   1.354       .  A
N43          N44   1.320       .  A
N43        N1205   1.317   1_445  A
N43         Mn55   2.201   1_554  S
N44         C337   1.351   1_545  A
C45         C141   1.467       .  S
C45         N914   1.352   1_455  A
C45         N190   1.351       .  A
N47          N53   1.316       .  A
N47          N48   1.323       .  A
N47         Mn77   2.209       .  S
N48          C56   1.354       .  A
N49          N50   1.323       .  A
N49          N51   1.316       .  A
N49         Mn55   2.210       .  S
N50          C57   1.354       .  A
N51          N52   1.317       .  A
N51         Mn77   2.193       .  S
N52          C57   1.349       .  A
N53          N54   1.317       .  A
N53         Mn55   2.194       .  S
N54          C56   1.350       .  A
Mn55        N915   2.199   1_455  S
Mn55        Cl79   2.545       .  S
N58          N59   1.318       .  A
N58          N64   1.316       .  A
N58         Mn66   2.196       .  S
N59          C67   1.350       .  A
N60          N62   1.316       .  A
N60          N61   1.317       .  A
N60         Mn78   2.194       .  S
N61          C68   1.350       .  A
N62          N63   1.323       .  A
N62         Mn66   2.209       .  S
N63          C68   1.354       .  A
N64          N65   1.323       .  A
N64         Mn78   2.208       .  S
N65          C67   1.354       .  A
Mn66        N187   2.202       .  S
Mn66       Cl663   2.545       .  S
N69          N70   1.321       .  A
N69          N75   1.315       .  A
N69        Mn223   2.200       .  S
N70          C80   1.354       .  A
N71          N72   1.320       .  A
N71         N657   1.316       .  A
N71         Mn78   2.202       .  S
N72         C227   1.352       .  A
N73          N74   1.320       .  A
N73        N1239   1.316   1_445  A
N73         Mn77   2.201       .  S
N74         C957   1.351       .  A
N75          N76   1.320       .  A
N75        Mn954   2.201   1_455  S
N76          C80   1.354       .  A
Mn77        N361   2.200   1_545  S
Mn77        Cl79   2.546       .  S
Mn78        N513   2.201       .  S
Mn78       Cl663   2.544       .  S
Cl79      Mn1234   2.545   1_445  S
Cl79      Mn1246   2.544   1_445  S
C81         C131   1.464       .  S
C81         N364   1.352   1_545  A
C81         N512   1.351       .  A
N82          N83   1.317       .  A
N82          N88   1.316       .  A
N82        Mn111   2.193       .  S
N83          C90   1.349       .  A
N84          N86   1.316       .  A
N84          N85   1.317       .  A
N84        Mn100   2.195       .  S
N85          C91   1.350       .  A
N86          N87   1.323       .  A
N86        Mn111   2.209       .  S
N87          C91   1.354       .  A
N88          N89   1.323       .  A
N88        Mn100   2.210       .  S
N89          C90   1.354       .  A
N92          N98   1.315       .  A
N92          N93   1.321       .  A
N92        Mn414   2.202   1_545  S
N93         C101   1.354       .  A
N94          N95   1.320       .  A
N94        N1264   1.317   1_445  A
N94        Mn100   2.202       .  S
N95         C394   1.352   1_545  A
N96          N97   1.321       .  A
N96         N678   1.317       .  A
N96        Mn122   2.206       .  S
N97         C540   1.352       .  A
N98          N99   1.320       .  A
N98        Mn538   2.199       .  S
N99         C101   1.353       .  A
Mn100       N974   2.199   1_455  S
Mn100      Cl124   2.545       .  S
C102        C138   1.467       .  S
C102        N241   1.352       .  A
C102        N973   1.352   1_455  A
N103        N104   1.320       .  A
N103       N1277   1.316   1_445  A
N103       Mn111   2.201       .  S
N104        C988   1.352       .  A
N105        N107   1.315       .  A
N105        N106   1.320       .  A
N105       Mn999   2.201   1_455  S
N106        C113   1.354       .  A
N107        N108   1.321       .  A
N107       Mn257   2.200       .  S
N108        C113   1.354       .  A
N109        N110   1.320       .  A
N109        N687   1.316       .  A
N109       Mn123   2.202       .  S
N110        C258   1.352       .  A
Mn111       N399   2.200   1_545  S
Mn111      Cl124   2.545       .  S
C112        C128   1.464       .  S
C112        N542   1.352       .  A
C112        N402   1.352   1_545  A
N114        N115   1.323       .  A
N114        N120   1.316       .  A
N114       Mn122   2.209       .  S
N115        C125   1.354       .  A
N116        N117   1.323       .  A
N116        N118   1.316       .  A
N116       Mn123   2.208       .  S
N117        C126   1.354       .  A
N118        N119   1.317       .  A
N118       Mn122   2.195       .  S
N119        C126   1.350       .  A
N120        N121   1.317       .  A
N120       Mn123   2.194       .  S
N121        C125   1.350       .  A
Mn122       N238   2.202       .  S
Mn122      Cl708   2.545       .  S
Mn123       N543   2.201       .  S
Mn123      Cl708   2.544       .  S
Cl124     Mn1290   2.545   1_445  S
Cl124     Mn1291   2.544   1_445  S
C127        C128   1.403       .  A
C127        C132   1.402       .  A
C127        H134   1.083       .  S
C128        C859   1.402   1_545  A
C129        C130   1.394       .  A
C129       C1150   1.402       .  A
C129        F136   1.358       .  S
C130       C1153   1.400       .  A
C130        H135   1.084       .  S
C131        C132   1.404       .  A
C131        C860   1.400   1_545  A
C132        F133   1.357       .  S
C137        C138   1.403       .  A
C137        C142   1.403       .  A
C137        H144   1.083       .  S
C138       C1161   1.403   1_455  A
C139        C140   1.395       .  A
C139        C868   1.403   1_545  A
C139        F146   1.358       .  S
C140        C871   1.401   1_545  A
C140        H145   1.084       .  S
C141        C142   1.404       .  A
C141       C1162   1.401   1_455  A
C142        F143   1.357       .  S
C147        C148   1.402       .  A
C147        C152   1.402       .  A
C147        C203   1.467       .  S
C148        C149   1.402       .  A
C148        H153   1.085       .  S
C149        C150   1.401       .  A
C149        C214   1.467       .  S
C150        C151   1.405       .  A
C150        H154   1.084       .  S
C151        C152   1.404       .  A
C151        C192   1.478       .  S
C152        H155   1.084       .  S
C156        C157   1.402       .  A
C156        C161   1.402       .  A
C156        C236   1.467       .  S
C157        C158   1.402       .  A
C157        H162   1.085       .  S
C158        C159   1.401       .  A
C158        C271   1.467       .  S
C159        C160   1.404       .  A
C159        H163   1.084       .  S
C160        C161   1.404       .  A
C160        C247   1.478       .  S
C161        H164   1.084       .  S
C165        C166   1.402       .  A
C165        C170   1.402       .  A
C165        C213   1.467       .  S
C166        C167   1.402       .  A
C166        H171   1.085       .  S
C167        C168   1.402       .  A
C167        C202   1.468       .  S
C168        C169   1.405       .  A
C168        H172   1.083       .  S
C169        C170   1.405       .  A
C169        C226   1.479       .  S
C170        H173   1.084       .  S
C174        C175   1.402       .  A
C174        C179   1.402       .  A
C174        C272   1.467       .  S
C175        C176   1.405       .  A
C175        H180   1.084       .  S
C176        C177   1.405       .  A
C176        C259   1.479       .  S
C177        C178   1.402       .  A
C177        H181   1.083       .  S
C178        C179   1.402       .  A
C178        C237   1.468       .  S
C179        H182   1.085       .  S
N183        N184   1.321       .  A
N183        N773   1.317       .  A
N183       Mn212   2.207   1_554  S
N184        C629   1.352       .  A
N185        N187   1.315       .  A
N185        N186   1.320       .  A
N185       Mn639   2.199       .  S
N186        C192   1.353       .  A
N187        N188   1.321       .  A
N188        C192   1.354       .  A
N189        N913   1.317   1_455  A
N189        N190   1.320       .  A
N189       Mn201   2.201   1_554  S
C191        C287   1.467       .  S
C191       N1060   1.352   1_455  A
C191        N336   1.351       .  A
N193        N199   1.316       .  A
N193        N194   1.323       .  A
N193       Mn223   2.209       .  S
N194        C202   1.354       .  A
N195        N196   1.323       .  A
N195        N197   1.316       .  A
N195       Mn201   2.210       .  S
N196        C203   1.354       .  A
N197        N198   1.317       .  A
N197       Mn223   2.193       .  S
N198        C203   1.349       .  A
N199        N200   1.317       .  A
N199       Mn201   2.194       .  S
N200        C202   1.350       .  A
Mn201      N1061   2.199   1_455  S
Mn201      Cl225   2.545       .  S
N204        N205   1.318       .  A
N204        N210   1.316       .  A
N204       Mn212   2.196       .  S
N205        C213   1.350       .  A
N206        N208   1.316       .  A
N206        N207   1.317       .  A
N206       Mn224   2.194       .  S
N207        C214   1.350       .  A
N208        N209   1.323       .  A
N208       Mn212   2.209       .  S
N209        C214   1.354       .  A
N210        N211   1.323       .  A
N210       Mn224   2.208       .  S
N211        C213   1.354       .  A
Mn212       N333   2.202       .  S
Mn212      Cl809   2.545       .  S
N215        N216   1.321       .  A
N215        N221   1.315       .  A
N215       Mn369   2.200       .  S
N216        C226   1.354       .  A
N217        N218   1.320       .  A
N217        N803   1.316       .  A
N217       Mn224   2.202       .  S
N218        C373   1.352       .  A
N219        N947   1.316   1_455  A
N219        N220   1.320       .  A
N219       Mn223   2.201       .  S
N220       C1103   1.351       .  A
N221        N222   1.320       .  A
N221      Mn1100   2.201   1_455  S
N222        C226   1.354       .  A
Mn223      Cl225   2.546       .  S
Mn224       N659   2.201       .  S
Mn224      Cl809   2.544       .  S
Cl225      Mn942   2.545   1_455  S
Cl225      Mn954   2.544   1_455  S
C227        C277   1.464       .  S
C227        N658   1.351       .  A
N228        N229   1.317       .  A
N228        N234   1.316       .  A
N228       Mn257   2.193       .  S
N229        C236   1.349       .  A
N230        N232   1.316       .  A
N230        N231   1.317       .  A
N230       Mn246   2.195       .  S
N231        C237   1.350       .  A
N232        N233   1.323       .  A
N232       Mn257   2.209       .  S
N233        C237   1.354       .  A
N234        N235   1.323       .  A
N234       Mn246   2.210       .  S
N235        C236   1.354       .  A
N238        N244   1.315       .  A
N238        N239   1.321       .  A
N239        C247   1.354       .  A
N240        N241   1.320       .  A
N240        N972   1.317   1_455  A
N240       Mn246   2.202       .  S
N242        N824   1.317       .  A
N242        N243   1.321       .  A
N242       Mn268   2.206       .  S
N243        C686   1.352       .  A
N244        N245   1.320       .  A
N244       Mn684   2.199       .  S
N245        C247   1.353       .  A
Mn246      N1120   2.199   1_455  S
Mn246      Cl270   2.545       .  S
C248        C284   1.467       .  S
C248        N387   1.352       .  A
C248       N1119   1.352   1_455  A
N249        N250   1.320       .  A
N249        N985   1.316   1_455  A
N249       Mn257   2.201       .  S
N250       C1134   1.352       .  A
N251        N253   1.315       .  A
N251        N252   1.320       .  A
N251      Mn1145   2.201   1_455  S
N252        C259   1.354       .  A
N253        N254   1.321       .  A
N253       Mn403   2.200       .  S
N254        C259   1.354       .  A
N255        N833   1.316       .  A
N255        N256   1.320       .  A
N255       Mn269   2.202       .  S
N256        C404   1.352       .  A
Mn257      Cl270   2.545       .  S
C258        C274   1.464       .  S
C258        N688   1.352       .  A
N260        N261   1.323       .  A
N260        N266   1.316       .  A
N260       Mn268   2.209       .  S
N261        C271   1.354       .  A
N262        N263   1.323       .  A
N262        N264   1.316       .  A
N262       Mn269   2.208       .  S
N263        C272   1.354       .  A
N264        N265   1.317       .  A
N264       Mn268   2.195       .  S
N265        C272   1.350       .  A
N266        N267   1.317       .  A
N266       Mn269   2.194       .  S
N267        C271   1.350       .  A
Mn268       N384   2.202       .  S
Mn268      Cl854   2.545       .  S
Mn269       N689   2.201       .  S
Mn269      Cl854   2.544       .  S
Cl270      Mn998   2.545   1_455  S
Cl270      Mn999   2.544   1_455  S
C273        C274   1.403       .  A
C273        C278   1.402       .  A
C273        H280   1.083       .  S
C274        C567   1.402       .  A
C275       C1296   1.402       .  A
C275        C276   1.394       .  A
C275        F282   1.358       .  S
C276       C1299   1.400       .  A
C276        H281   1.084       .  S
C277        C568   1.400       .  A
C277        C278   1.404       .  A
C278        F279   1.357       .  S
C283        C284   1.403       .  A
C283        C288   1.403       .  A
C283        H290   1.083       .  S
C284       C1307   1.403   1_455  A
C285        C576   1.403       .  A
C285        C286   1.395       .  A
C285        F292   1.358       .  S
C286        C579   1.401       .  A
C286        H291   1.084       .  S
C287       C1308   1.401   1_455  A
C287        C288   1.404       .  A
C288        F289   1.357       .  S
C293        C294   1.402       .  A
C293        C298   1.402       .  A
C293        C349   1.467       .  S
C294        C295   1.402       .  A
C294        H299   1.085       .  S
C295        C296   1.401       .  A
C295        C360   1.467       .  S
C296        C297   1.405       .  A
C296        H300   1.084       .  S
C297        C298   1.404       .  A
C297        C338   1.478       .  S
C298        H301   1.084       .  S
C302        C303   1.402       .  A
C302        C307   1.402       .  A
C302        C382   1.467       .  S
C303        C304   1.402       .  A
C303        H308   1.085       .  S
C304        C305   1.401       .  A
C304        C417   1.467       .  S
C305        C306   1.404       .  A
C305        H309   1.084       .  S
C306        C307   1.404       .  A
C306        C393   1.478       .  S
C307        H310   1.084       .  S
C311        C312   1.402       .  A
C311        C316   1.402       .  A
C311        C359   1.467       .  S
C312        C313   1.402       .  A
C312        H317   1.085       .  S
C313        C314   1.402       .  A
C313        C348   1.468       .  S
C314        C315   1.405       .  A
C314        H318   1.083       .  S
C315        C316   1.405       .  A
C315        C372   1.479       .  S
C316        H319   1.084       .  S
C320        C321   1.402       .  A
C320        C325   1.402       .  A
C320        C418   1.467       .  S
C321        C322   1.405       .  A
C321        H326   1.084       .  S
C322        C323   1.405       .  A
C322        C405   1.479       .  S
C323        C324   1.402       .  A
C323        H327   1.083       .  S
C324        C325   1.402       .  A
C324        C383   1.468       .  S
C325        H328   1.085       .  S
N329        N330   1.321       .  A
N329        N481   1.317   1_565  A
N329       Mn358   2.207   1_554  S
N330        C775   1.352       .  A
N331        N333   1.315       .  A
N331        N332   1.320       .  A
N331       Mn785   2.199       .  S
N332        C338   1.353       .  A
N333        N334   1.321       .  A
N334        C338   1.354       .  A
N335       N1059   1.317   1_455  A
N335        N336   1.320       .  A
N335       Mn347   2.201   1_554  S
C337        C433   1.467       .  S
C337       N1206   1.352   1_455  A
N339        N345   1.316       .  A
N339        N340   1.323       .  A
N339       Mn369   2.209       .  S
N340        C348   1.354       .  A
N341        N342   1.323       .  A
N341        N343   1.316       .  A
N341       Mn347   2.210       .  S
N342        C349   1.354       .  A
N343        N344   1.317       .  A
N343       Mn369   2.193       .  S
N344        C349   1.349       .  A
N345        N346   1.317       .  A
N345       Mn347   2.194       .  S
N346        C348   1.350       .  A
Mn347      N1207   2.199   1_455  S
Mn347      Cl371   2.545       .  S
N350        N351   1.318       .  A
N350        N356   1.316       .  A
N350       Mn358   2.196       .  S
N351        C359   1.350       .  A
N352        N354   1.316       .  A
N352        N353   1.317       .  A
N352       Mn370   2.194       .  S
N353        C360   1.350       .  A
N354        N355   1.323       .  A
N354       Mn358   2.209       .  S
N355        C360   1.354       .  A
N356        N357   1.323       .  A
N356       Mn370   2.208       .  S
N357        C359   1.354       .  A
Mn358      Cl517   2.545   1_565  S
N361        N362   1.321       .  A
N361        N367   1.315       .  A
N362        C372   1.354       .  A
N363        N364   1.320       .  A
N363        N511   1.316   1_565  A
N363       Mn370   2.202       .  S
N365       N1093   1.316   1_455  A
N365        N366   1.320       .  A
N365       Mn369   2.201       .  S
N366       C1249   1.351       .  A
N367        N368   1.320       .  A
N367      Mn1246   2.201   1_455  S
N368        C372   1.354       .  A
Mn369      Cl371   2.546       .  S
Mn370       N805   2.201       .  S
Mn370      Cl517   2.544   1_565  S
Cl371     Mn1088   2.545   1_455  S
Cl371     Mn1100   2.544   1_455  S
C373        C423   1.464       .  S
C373        N804   1.351       .  A
N374        N375   1.317       .  A
N374        N380   1.316       .  A
N374       Mn403   2.193       .  S
N375        C382   1.349       .  A
N376        N378   1.316       .  A
N376        N377   1.317       .  A
N376       Mn392   2.195       .  S
N377        C383   1.350       .  A
N378        N379   1.323       .  A
N378       Mn403   2.209       .  S
N379        C383   1.354       .  A
N380        N381   1.323       .  A
N380       Mn392   2.210       .  S
N381        C382   1.354       .  A
N384        N390   1.315       .  A
N384        N385   1.321       .  A
N385        C393   1.354       .  A
N386        N387   1.320       .  A
N386       N1118   1.317   1_455  A
N386       Mn392   2.202       .  S
N388        N532   1.317   1_565  A
N388        N389   1.321       .  A
N388       Mn414   2.206       .  S
N389        C832   1.352       .  A
N390        N391   1.320       .  A
N390       Mn830   2.199       .  S
N391        C393   1.353       .  A
Mn392      N1266   2.199   1_455  S
Mn392      Cl416   2.545       .  S
C394        C430   1.467       .  S
C394       N1265   1.352   1_455  A
N395        N396   1.320       .  A
N395       N1131   1.316   1_455  A
N395       Mn403   2.201       .  S
N396       C1280   1.352       .  A
N397        N399   1.315       .  A
N397        N398   1.320       .  A
N397      Mn1291   2.201   1_455  S
N398        C405   1.354       .  A
N399        N400   1.321       .  A
N400        C405   1.354       .  A
N401        N541   1.316   1_565  A
N401        N402   1.320       .  A
N401       Mn415   2.202       .  S
Mn403      Cl416   2.545       .  S
C404        C420   1.464       .  S
C404        N834   1.352       .  A
N406        N407   1.323       .  A
N406        N412   1.316       .  A
N406       Mn414   2.209       .  S
N407        C417   1.354       .  A
N408        N409   1.323       .  A
N408        N410   1.316       .  A
N408       Mn415   2.208       .  S
N409        C418   1.354       .  A
N410        N411   1.317       .  A
N410       Mn414   2.195       .  S
N411        C418   1.350       .  A
N412        N413   1.317       .  A
N412       Mn415   2.194       .  S
N413        C417   1.350       .  A
Mn414      Cl562   2.545   1_565  S
Mn415       N835   2.201       .  S
Mn415      Cl562   2.544   1_565  S
Cl416     Mn1144   2.545   1_455  S
Cl416     Mn1145   2.544   1_455  S
C419        C420   1.403       .  A
C419        C424   1.402       .  A
C419        H426   1.083       .  S
C420        C713   1.402       .  A
C421       C1004   1.402   1_565  A
C421        C422   1.394       .  A
C421        F428   1.358       .  S
C422       C1007   1.400   1_565  A
C422        H427   1.084       .  S
C423        C714   1.400       .  A
C423        C424   1.404       .  A
C424        F425   1.357       .  S
C429        C430   1.403       .  A
C429        C434   1.403       .  A
C429        H436   1.083       .  S
C430       C1015   1.403   1_465  A
C431        C722   1.403       .  A
C431        C432   1.395       .  A
C431        F438   1.358       .  S
C432        C725   1.401       .  A
C432        H437   1.084       .  S
C433       C1016   1.401   1_465  A
C433        C434   1.404       .  A
C434        F435   1.357       .  S
C439        C440   1.402       .  A
C439        C444   1.402       .  A
C439        C495   1.467       .  S
C440        C441   1.402       .  A
C440        H445   1.085       .  S
C441        C442   1.401       .  A
C441        C506   1.467       .  S
C442        C443   1.405       .  A
C442        H446   1.084       .  S
C443        C444   1.404       .  A
C443        C484   1.478       .  S
C444        H447   1.084       .  S
C448        C449   1.402       .  A
C448        C453   1.402       .  A
C448        C528   1.467       .  S
C449        C450   1.402       .  A
C449        H454   1.085       .  S
C450        C451   1.401       .  A
C450        C563   1.467       .  S
C451        C452   1.404       .  A
C451        H455   1.084       .  S
C452        C453   1.404       .  A
C452        C539   1.478       .  S
C453        H456   1.084       .  S
C457        C458   1.402       .  A
C457        C462   1.402       .  A
C457        C505   1.467       .  S
C458        C459   1.402       .  A
C458        H463   1.085       .  S
C459        C460   1.402       .  A
C459        C494   1.468       .  S
C460        C461   1.405       .  A
C460        H464   1.083       .  S
C461        C462   1.405       .  A
C461        C518   1.479       .  S
C462        H465   1.084       .  S
C466        C467   1.402       .  A
C466        C471   1.402       .  A
C466        C564   1.467       .  S
C467        C468   1.405       .  A
C467        H472   1.084       .  S
C468        C469   1.405       .  A
C468        C551   1.479       .  S
C469        C470   1.402       .  A
C469        H473   1.083       .  S
C470        C471   1.402       .  A
C470        C529   1.468       .  S
C471        H474   1.085       .  S
N475        N476   1.321       .  A
N475       N1065   1.317       .  A
N475       Mn504   2.207   1_554  S
N476        C921   1.352       .  A
N477        N479   1.315       .  A
N477        N478   1.320       .  A
N477       Mn931   2.199       .  S
N478        C484   1.353       .  A
N479        N480   1.321       .  A
N479       Mn796   2.202   1_545  S
N480        C484   1.354       .  A
N481        N482   1.320       .  A
N481       Mn493   2.201   1_554  S
N482        C775   1.351   1_545  A
C483        C579   1.467       .  S
C483        N628   1.351       .  A
N485        N491   1.316       .  A
N485        N486   1.323       .  A
N485       Mn515   2.209       .  S
N486        C494   1.354       .  A
N487        N488   1.323       .  A
N487        N489   1.316       .  A
N487       Mn493   2.210       .  S
N488        C495   1.354       .  A
N489        N490   1.317       .  A
N489       Mn515   2.193       .  S
N490        C495   1.349       .  A
N491        N492   1.317       .  A
N491       Mn493   2.194       .  S
N492        C494   1.350       .  A
Mn493      Cl517   2.545       .  S
N496        N497   1.318       .  A
N496        N502   1.316       .  A
N496       Mn504   2.196       .  S
N497        C505   1.350       .  A
N498        N500   1.316       .  A
N498        N499   1.317       .  A
N498       Mn516   2.194       .  S
N499        C506   1.350       .  A
N500        N501   1.323       .  A
N500       Mn504   2.209       .  S
N501        C506   1.354       .  A
N502        N503   1.323       .  A
N502       Mn516   2.208       .  S
N503        C505   1.354       .  A
Mn504       N625   2.202       .  S
Mn504     Cl1101   2.545       .  S
N507        N508   1.321       .  A
N507        N513   1.315       .  A
N507       Mn661   2.200       .  S
N508        C518   1.354       .  A
N509        N510   1.320       .  A
N509       N1095   1.316       .  A
N509       Mn516   2.202       .  S
N510        C665   1.352       .  A
N511        N512   1.320       .  A
N511       Mn515   2.201       .  S
N513        N514   1.320       .  A
N514        C518   1.354       .  A
Mn515       N799   2.200   1_545  S
Mn515      Cl517   2.546       .  S
Mn516       N951   2.201       .  S
Mn516     Cl1101   2.544       .  S
C519        C569   1.464       .  S
C519        N802   1.352   1_545  A
C519        N950   1.351       .  A
N520        N521   1.317       .  A
N520        N526   1.316       .  A
N520       Mn549   2.193       .  S
N521        C528   1.349       .  A
N522        N524   1.316       .  A
N522        N523   1.317       .  A
N522       Mn538   2.195       .  S
N523        C529   1.350       .  A
N524        N525   1.323       .  A
N524       Mn549   2.209       .  S
N525        C529   1.354       .  A
N526        N527   1.323       .  A
N526       Mn538   2.210       .  S
N527        C528   1.354       .  A
N530        N536   1.315       .  A
N530        N531   1.321       .  A
N530       Mn852   2.202   1_545  S
N531        C539   1.354       .  A
N532        N533   1.320       .  A
N532       Mn538   2.202       .  S
N533        C832   1.352   1_545  A
N534       N1116   1.317       .  A
N534        N535   1.321       .  A
N534       Mn560   2.206       .  S
N535        C978   1.352       .  A
N536        N537   1.320       .  A
N536       Mn976   2.199       .  S
N537        C539   1.353       .  A
Mn538      Cl562   2.545       .  S
C540        C576   1.467       .  S
C540        N679   1.352       .  A
N541        N542   1.320       .  A
N541       Mn549   2.201       .  S
N543        N545   1.315       .  A
N543        N544   1.320       .  A
N544        C551   1.354       .  A
N545        N546   1.321       .  A
N545       Mn695   2.200       .  S
N546        C551   1.354       .  A
N547       N1125   1.316       .  A
N547        N548   1.320       .  A
N547       Mn561   2.202       .  S
N548        C696   1.352       .  A
Mn549       N837   2.200   1_545  S
Mn549      Cl562   2.545       .  S
C550        C566   1.464       .  S
C550        N980   1.352       .  A
C550        N840   1.352   1_545  A
N552        N553   1.323       .  A
N552        N558   1.316       .  A
N552       Mn560   2.209       .  S
N553        C563   1.354       .  A
N554        N555   1.323       .  A
N554        N556   1.316       .  A
N554       Mn561   2.208       .  S
N555        C564   1.354       .  A
N556        N557   1.317       .  A
N556       Mn560   2.195       .  S
N557        C564   1.350       .  A
N558        N559   1.317       .  A
N558       Mn561   2.194       .  S
N559        C563   1.350       .  A
Mn560       N676   2.202       .  S
Mn560     Cl1146   2.545       .  S
Mn561       N981   2.201       .  S
Mn561     Cl1146   2.544       .  S
C565        C566   1.403       .  A
C565        C570   1.402       .  A
C565        H572   1.083       .  S
C566       C1297   1.402   1_545  A
C567        C568   1.394       .  A
C567        F574   1.358       .  S
C568        H573   1.084       .  S
C569       C1298   1.400   1_545  A
C569        C570   1.404       .  A
C570        F571   1.357       .  S
C575        C576   1.403       .  A
C575        C580   1.403       .  A
C575        H582   1.083       .  S
C577       C1306   1.403   1_545  A
C577        C578   1.395       .  A
C577        F584   1.358       .  S
C578       C1309   1.401   1_545  A
C578        H583   1.084       .  S
C579        C580   1.404       .  A
C580        F581   1.357       .  S
C585        C586   1.402       .  A
C585        C590   1.402       .  A
C585        C641   1.467       .  S
C586        C587   1.402       .  A
C586        H591   1.085       .  S
C587        C588   1.401       .  A
C587        C652   1.467       .  S
C588        C589   1.405       .  A
C588        H592   1.084       .  S
C589        C590   1.404       .  A
C589        C630   1.478       .  S
C590        H593   1.084       .  S
C594        C595   1.402       .  A
C594        C599   1.402       .  A
C594        C674   1.467       .  S
C595        C596   1.402       .  A
C595        H600   1.085       .  S
C596        C597   1.401       .  A
C596        C709   1.467       .  S
C597        C598   1.404       .  A
C597        H601   1.084       .  S
C598        C599   1.404       .  A
C598        C685   1.478       .  S
C599        H602   1.084       .  S
C603        C604   1.402       .  A
C603        C608   1.402       .  A
C603        C651   1.467       .  S
C604        C605   1.402       .  A
C604        H609   1.085       .  S
C605        C606   1.402       .  A
C605        C640   1.468       .  S
C606        C607   1.405       .  A
C606        H610   1.083       .  S
C607        C608   1.405       .  A
C607        C664   1.479       .  S
C608        H611   1.084       .  S
C612        C613   1.402       .  A
C612        C617   1.402       .  A
C612        C710   1.467       .  S
C613        C614   1.405       .  A
C613        H618   1.084       .  S
C614        C615   1.405       .  A
C614        C697   1.479       .  S
C615        C616   1.402       .  A
C615        H619   1.083       .  S
C616        C617   1.402       .  A
C616        C675   1.468       .  S
C617        H620   1.085       .  S
N621        N622   1.321       .  A
N621       N1211   1.317       .  A
N621       Mn650   2.207   1_554  S
N622       C1067   1.352       .  A
N623        N625   1.315       .  A
N623        N624   1.320       .  A
N623      Mn1077   2.199       .  S
N624        C630   1.353       .  A
N625        N626   1.321       .  A
N626        C630   1.354       .  A
N627        N628   1.320       .  A
N627       Mn639   2.201   1_554  S
C629        C725   1.467       .  S
C629        N774   1.351       .  A
N631        N637   1.316       .  A
N631        N632   1.323       .  A
N631       Mn661   2.209       .  S
N632        C640   1.354       .  A
N633        N634   1.323       .  A
N633        N635   1.316       .  A
N633       Mn639   2.210       .  S
N634        C641   1.354       .  A
N635        N636   1.317       .  A
N635       Mn661   2.193       .  S
N636        C641   1.349       .  A
N637        N638   1.317       .  A
N637       Mn639   2.194       .  S
N638        C640   1.350       .  A
Mn639      Cl663   2.545       .  S
N642        N643   1.318       .  A
N642        N648   1.316       .  A
N642       Mn650   2.196       .  S
N643        C651   1.350       .  A
N644        N646   1.316       .  A
N644        N645   1.317       .  A
N644       Mn662   2.194       .  S
N645        C652   1.350       .  A
N646        N647   1.323       .  A
N646       Mn650   2.209       .  S
N647        C652   1.354       .  A
N648        N649   1.323       .  A
N648       Mn662   2.208       .  S
N649        C651   1.354       .  A
Mn650       N771   2.202       .  S
Mn650     Cl1247   2.545       .  S
N653        N654   1.321       .  A
N653        N659   1.315       .  A
N653       Mn807   2.200       .  S
N654        C664   1.354       .  A
N655        N656   1.320       .  A
N655       N1241   1.316       .  A
N655       Mn662   2.202       .  S
N656        C811   1.352       .  A
N657        N658   1.320       .  A
N657       Mn661   2.201       .  S
N659        N660   1.320       .  A
N660        C664   1.354       .  A
Mn661      Cl663   2.546       .  S
Mn662      N1097   2.201       .  S
Mn662     Cl1247   2.544       .  S
C665        C715   1.464       .  S
C665       N1096   1.351       .  A
N666        N667   1.317       .  A
N666        N672   1.316       .  A
N666       Mn695   2.193       .  S
N667        C674   1.349       .  A
N668        N670   1.316       .  A
N668        N669   1.317       .  A
N668       Mn684   2.195       .  S
N669        C675   1.350       .  A
N670        N671   1.323       .  A
N670       Mn695   2.209       .  S
N671        C675   1.354       .  A
N672        N673   1.323       .  A
N672       Mn684   2.210       .  S
N673        C674   1.354       .  A
N676        N682   1.315       .  A
N676        N677   1.321       .  A
N677        C685   1.354       .  A
N678        N679   1.320       .  A
N678       Mn684   2.202       .  S
N680       N1262   1.317       .  A
N680        N681   1.321       .  A
N680       Mn706   2.206       .  S
N681       C1124   1.352       .  A
N682        N683   1.320       .  A
N682      Mn1122   2.199       .  S
N683        C685   1.353       .  A
Mn684      Cl708   2.545       .  S
C686        C722   1.467       .  S
C686        N825   1.352       .  A
N687        N688   1.320       .  A
N687       Mn695   2.201       .  S
N689        N691   1.315       .  A
N689        N690   1.320       .  A
N690        C697   1.354       .  A
N691        N692   1.321       .  A
N691       Mn841   2.200       .  S
N692        C697   1.354       .  A
N693       N1271   1.316       .  A
N693        N694   1.320       .  A
N693       Mn707   2.202       .  S
N694        C842   1.352       .  A
Mn695      Cl708   2.545       .  S
C696        C712   1.464       .  S
C696       N1126   1.352       .  A
N698        N699   1.323       .  A
N698        N704   1.316       .  A
N698       Mn706   2.209       .  S
N699        C709   1.354       .  A
N700        N701   1.323       .  A
N700        N702   1.316       .  A
N700       Mn707   2.208       .  S
N701        C710   1.354       .  A
N702        N703   1.317       .  A
N702       Mn706   2.195       .  S
N703        C710   1.350       .  A
N704        N705   1.317       .  A
N704       Mn707   2.194       .  S
N705        C709   1.350       .  A
Mn706       N822   2.202       .  S
Mn706     Cl1292   2.545       .  S
Mn707      N1127   2.201       .  S
Mn707     Cl1292   2.544       .  S
C711        C712   1.403       .  A
C711        C716   1.402       .  A
C711        H718   1.083       .  S
C712       C1005   1.402       .  A
C713        C714   1.394       .  A
C713        F720   1.358       .  S
C714        H719   1.084       .  S
C715       C1006   1.400       .  A
C715        C716   1.404       .  A
C716        F717   1.357       .  S
C721        C722   1.403       .  A
C721        C726   1.403       .  A
C721        H728   1.083       .  S
C723       C1014   1.403       .  A
C723        C724   1.395       .  A
C723        F730   1.358       .  S
C724       C1017   1.401       .  A
C724        H729   1.084       .  S
C725        C726   1.404       .  A
C726        F727   1.357       .  S
C731        C732   1.402       .  A
C731        C736   1.402       .  A
C731        C787   1.467       .  S
C732        C733   1.402       .  A
C732        H737   1.085       .  S
C733        C734   1.401       .  A
C733        C798   1.467       .  S
C734        C735   1.405       .  A
C734        H738   1.084       .  S
C735        C736   1.404       .  A
C735        C776   1.478       .  S
C736        H739   1.084       .  S
C740        C741   1.402       .  A
C740        C745   1.402       .  A
C740        C820   1.467       .  S
C741        C742   1.402       .  A
C741        H746   1.085       .  S
C742        C743   1.401       .  A
C742        C855   1.467       .  S
C743        C744   1.404       .  A
C743        H747   1.084       .  S
C744        C745   1.404       .  A
C744        C831   1.478       .  S
C745        H748   1.084       .  S
C749        C750   1.402       .  A
C749        C754   1.402       .  A
C749        C797   1.467       .  S
C750        C751   1.402       .  A
C750        H755   1.085       .  S
C751        C752   1.402       .  A
C751        C786   1.468       .  S
C752        C753   1.405       .  A
C752        H756   1.083       .  S
C753        C754   1.405       .  A
C753        C810   1.479       .  S
C754        H757   1.084       .  S
C758        C759   1.402       .  A
C758        C763   1.402       .  A
C758        C856   1.467       .  S
C759        C760   1.405       .  A
C759        H764   1.084       .  S
C760        C761   1.405       .  A
C760        C843   1.479       .  S
C761        C762   1.402       .  A
C761        H765   1.083       .  S
C762        C763   1.402       .  A
C762        C821   1.468       .  S
C763        H766   1.085       .  S
N767        N768   1.321       .  A
N767        N919   1.317   1_565  A
N767       Mn796   2.207   1_554  S
N768       C1213   1.352       .  A
N769        N771   1.315       .  A
N769        N770   1.320       .  A
N769      Mn1223   2.199       .  S
N770        C776   1.353       .  A
N771        N772   1.321       .  A
N772        C776   1.354       .  A
N773        N774   1.320       .  A
N773       Mn785   2.201   1_554  S
C775        C871   1.467       .  S
N777        N783   1.316       .  A
N777        N778   1.323       .  A
N777       Mn807   2.209       .  S
N778        C786   1.354       .  A
N779        N780   1.323       .  A
N779        N781   1.316       .  A
N779       Mn785   2.210       .  S
N780        C787   1.354       .  A
N781        N782   1.317       .  A
N781       Mn807   2.193       .  S
N782        C787   1.349       .  A
N783        N784   1.317       .  A
N783       Mn785   2.194       .  S
N784        C786   1.350       .  A
Mn785      Cl809   2.545       .  S
N788        N789   1.318       .  A
N788        N794   1.316       .  A
N788       Mn796   2.196       .  S
N789        C797   1.350       .  A
N790        N792   1.316       .  A
N790        N791   1.317       .  A
N790       Mn808   2.194       .  S
N791        C798   1.350       .  A
N792        N793   1.323       .  A
N792       Mn796   2.209       .  S
N793        C798   1.354       .  A
N794        N795   1.323       .  A
N794       Mn808   2.208       .  S
N795        C797   1.354       .  A
Mn796      Cl955   2.545   1_565  S
N799        N800   1.321       .  A
N799        N805   1.315       .  A
N800        C810   1.354       .  A
N801        N802   1.320       .  A
N801        N949   1.316   1_565  A
N801       Mn808   2.202       .  S
N803        N804   1.320       .  A
N803       Mn807   2.201       .  S
N805        N806   1.320       .  A
N806        C810   1.354       .  A
Mn807      Cl809   2.546       .  S
Mn808      N1243   2.201       .  S
Mn808      Cl955   2.544   1_565  S
C811        C861   1.464       .  S
C811       N1242   1.351       .  A
N812        N813   1.317       .  A
N812        N818   1.316       .  A
N812       Mn841   2.193       .  S
N813        C820   1.349       .  A
N814        N816   1.316       .  A
N814        N815   1.317       .  A
N814       Mn830   2.195       .  S
N815        C821   1.350       .  A
N816        N817   1.323       .  A
N816       Mn841   2.209       .  S
N817        C821   1.354       .  A
N818        N819   1.323       .  A
N818       Mn830   2.210       .  S
N819        C820   1.354       .  A
N822        N828   1.315       .  A
N822        N823   1.321       .  A
N823        C831   1.354       .  A
N824        N825   1.320       .  A
N824       Mn830   2.202       .  S
N826        N970   1.317   1_565  A
N826        N827   1.321       .  A
N826       Mn852   2.206       .  S
N827       C1270   1.352       .  A
N828        N829   1.320       .  A
N828      Mn1268   2.199       .  S
N829        C831   1.353       .  A
Mn830      Cl854   2.545       .  S
C832        C868   1.467       .  S
N833        N834   1.320       .  A
N833       Mn841   2.201       .  S
N835        N837   1.315       .  A
N835        N836   1.320       .  A
N836        C843   1.354       .  A
N837        N838   1.321       .  A
N838        C843   1.354       .  A
N839        N979   1.316   1_565  A
N839        N840   1.320       .  A
N839       Mn853   2.202       .  S
Mn841      Cl854   2.545       .  S
C842        C858   1.464       .  S
C842       N1272   1.352       .  A
N844        N845   1.323       .  A
N844        N850   1.316       .  A
N844       Mn852   2.209       .  S
N845        C855   1.354       .  A
N846        N847   1.323       .  A
N846        N848   1.316       .  A
N846       Mn853   2.208       .  S
N847        C856   1.354       .  A
N848        N849   1.317       .  A
N848       Mn852   2.195       .  S
N849        C856   1.350       .  A
N850        N851   1.317       .  A
N850       Mn853   2.194       .  S
N851        C855   1.350       .  A
Mn852     Cl1000   2.545   1_565  S
Mn853      N1273   2.201       .  S
Mn853     Cl1000   2.544   1_565  S
C857        C858   1.403       .  A
C857        C862   1.402       .  A
C857        H864   1.083       .  S
C858       C1151   1.402       .  A
C859        C860   1.394       .  A
C859        F866   1.358       .  S
C860        H865   1.084       .  S
C861       C1152   1.400       .  A
C861        C862   1.404       .  A
C862        F863   1.357       .  S
C867        C868   1.403       .  A
C867        C872   1.403       .  A
C867        H874   1.083       .  S
C869       C1160   1.403       .  A
C869        C870   1.395       .  A
C869        F876   1.358       .  S
C870       C1163   1.401       .  A
C870        H875   1.084       .  S
C871        C872   1.404       .  A
C872        F873   1.357       .  S
C877        C878   1.402       .  A
C877        C882   1.402       .  A
C877        C933   1.467       .  S
C878        C879   1.402       .  A
C878        H883   1.085       .  S
C879        C880   1.401       .  A
C879        C944   1.467       .  S
C880        C881   1.405       .  A
C880        H884   1.084       .  S
C881        C882   1.404       .  A
C881        C922   1.478       .  S
C882        H885   1.084       .  S
C886        C887   1.402       .  A
C886        C891   1.402       .  A
C886        C966   1.467       .  S
C887        C888   1.402       .  A
C887        H892   1.085       .  S
C888        C889   1.401       .  A
C888       C1001   1.467       .  S
C889        C890   1.404       .  A
C889        H893   1.084       .  S
C890        C891   1.404       .  A
C890        C977   1.478       .  S
C891        H894   1.084       .  S
C895        C896   1.402       .  A
C895        C900   1.402       .  A
C895        C943   1.467       .  S
C896        C897   1.402       .  A
C896        H901   1.085       .  S
C897        C898   1.402       .  A
C897        C932   1.468       .  S
C898        C899   1.405       .  A
C898        H902   1.083       .  S
C899        C900   1.405       .  A
C899        C956   1.479       .  S
C900        H903   1.084       .  S
C904        C905   1.402       .  A
C904        C909   1.402       .  A
C904       C1002   1.467       .  S
C905        C906   1.405       .  A
C905        H910   1.084       .  S
C906        C907   1.405       .  A
C906        C989   1.479       .  S
C907        C908   1.402       .  A
C907        H911   1.083       .  S
C908        C909   1.402       .  A
C908        C967   1.468       .  S
C909        H912   1.085       .  S
N913        N914   1.321       .  A
N913       Mn942   2.207   1_554  S
N915        N917   1.315       .  A
N915        N916   1.320       .  A
N916        C922   1.353       .  A
N917        N918   1.321       .  A
N917      Mn1234   2.202   1_545  S
N918        C922   1.354       .  A
N919        N920   1.320       .  A
N919       Mn931   2.201   1_554  S
N920       C1213   1.351   1_545  A
C921       C1017   1.467       .  S
C921       N1066   1.351       .  A
N923        N929   1.316       .  A
N923        N924   1.323       .  A
N923       Mn953   2.209       .  S
N924        C932   1.354       .  A
N925        N926   1.323       .  A
N925        N927   1.316       .  A
N925       Mn931   2.210       .  S
N926        C933   1.354       .  A
N927        N928   1.317       .  A
N927       Mn953   2.193       .  S
N928        C933   1.349       .  A
N929        N930   1.317       .  A
N929       Mn931   2.194       .  S
N930        C932   1.350       .  A
Mn931      Cl955   2.545       .  S
N934        N935   1.318       .  A
N934        N940   1.316       .  A
N934       Mn942   2.196       .  S
N935        C943   1.350       .  A
N936        N938   1.316       .  A
N936        N937   1.317       .  A
N936       Mn954   2.194       .  S
N937        C944   1.350       .  A
N938        N939   1.323       .  A
N938       Mn942   2.209       .  S
N939        C944   1.354       .  A
N940        N941   1.323       .  A
N940       Mn954   2.208       .  S
N941        C943   1.354       .  A
Mn942      N1063   2.202       .  S
N945        N946   1.321       .  A
N945        N951   1.315       .  A
N945      Mn1099   2.200       .  S
N946        C956   1.354       .  A
N947        N948   1.320       .  A
N947       Mn954   2.202       .  S
N948       C1103   1.352   1_655  A
N949        N950   1.320       .  A
N949       Mn953   2.201       .  S
N951        N952   1.320       .  A
N952        C956   1.354       .  A
Mn953      N1237   2.200   1_545  S
Mn953      Cl955   2.546       .  S
C957       C1007   1.464       .  S
C957       N1240   1.352   1_445  A
N958        N959   1.317       .  A
N958        N964   1.316       .  A
N958       Mn987   2.193       .  S
N959        C966   1.349       .  A
N960        N962   1.316       .  A
N960        N961   1.317       .  A
N960       Mn976   2.195       .  S
N961        C967   1.350       .  A
N962        N963   1.323       .  A
N962       Mn987   2.209       .  S
N963        C967   1.354       .  A
N964        N965   1.323       .  A
N964       Mn976   2.210       .  S
N965        C966   1.354       .  A
N968        N974   1.315       .  A
N968        N969   1.321       .  A
N968      Mn1290   2.202   1_545  S
N969        C977   1.354       .  A
N970        N971   1.320       .  A
N970       Mn976   2.202       .  S
N971       C1270   1.352   1_545  A
N972        N973   1.321       .  A
N972       Mn998   2.206       .  S
N974        N975   1.320       .  A
N975        C977   1.353       .  A
Mn976     Cl1000   2.545       .  S
C978       C1014   1.467       .  S
C978       N1117   1.352       .  A
N979        N980   1.320       .  A
N979       Mn987   2.201       .  S
N981        N983   1.315       .  A
N981        N982   1.320       .  A
N982        C989   1.354       .  A
N983        N984   1.321       .  A
N983      Mn1133   2.200       .  S
N984        C989   1.354       .  A
N985        N986   1.320       .  A
N985       Mn999   2.202       .  S
N986       C1134   1.352   1_655  A
Mn987      N1275   2.200   1_545  S
Mn987     Cl1000   2.545       .  S
C988       C1004   1.464       .  S
C988       N1278   1.352   1_445  A
N990        N991   1.323       .  A
N990        N996   1.316       .  A
N990       Mn998   2.209       .  S
N991       C1001   1.354       .  A
N992        N993   1.323       .  A
N992        N994   1.316       .  A
N992       Mn999   2.208       .  S
N993       C1002   1.354       .  A
N994        N995   1.317       .  A
N994       Mn998   2.195       .  S
N995       C1002   1.350       .  A
N996        N997   1.317       .  A
N996       Mn999   2.194       .  S
N997       C1001   1.350       .  A
Mn998      N1114   2.202       .  S
C1003      C1004   1.403   1_655  A
C1003      C1008   1.402       .  A
C1003      H1010   1.083       .  S
C1005      C1006   1.394       .  A
C1005      F1012   1.358       .  S
C1006      H1011   1.084       .  S
C1007      C1008   1.404   1_455  A
C1008      F1009   1.357       .  S
C1013      C1014   1.403       .  A
C1013      C1018   1.403       .  A
C1013      H1020   1.083       .  S
C1015      C1016   1.395       .  A
C1015      F1022   1.358       .  S
C1016      H1021   1.084       .  S
C1017      C1018   1.404       .  A
C1018      F1019   1.357       .  S
C1023      C1024   1.402       .  A
C1023      C1028   1.402       .  A
C1023      C1079   1.467       .  S
C1024      C1025   1.402       .  A
C1024      H1029   1.085       .  S
C1025      C1026   1.401       .  A
C1025      C1090   1.467       .  S
C1026      C1027   1.405       .  A
C1026      H1030   1.084       .  S
C1027      C1028   1.404       .  A
C1027      C1068   1.478       .  S
C1028      H1031   1.084       .  S
C1032      C1033   1.402       .  A
C1032      C1037   1.402       .  A
C1032      C1112   1.467       .  S
C1033      C1034   1.402       .  A
C1033      H1038   1.085       .  S
C1034      C1035   1.401       .  A
C1034      C1147   1.467       .  S
C1035      C1036   1.404       .  A
C1035      H1039   1.084       .  S
C1036      C1037   1.404       .  A
C1036      C1123   1.478       .  S
C1037      H1040   1.084       .  S
C1041      C1042   1.402       .  A
C1041      C1046   1.402       .  A
C1041      C1089   1.467       .  S
C1042      C1043   1.402       .  A
C1042      H1047   1.085       .  S
C1043      C1044   1.402       .  A
C1043      C1078   1.468       .  S
C1044      C1045   1.405       .  A
C1044      H1048   1.083       .  S
C1045      C1046   1.405       .  A
C1045      C1102   1.479       .  S
C1046      H1049   1.084       .  S
C1050      C1051   1.402       .  A
C1050      C1055   1.402       .  A
C1050      C1148   1.467       .  S
C1051      C1052   1.405       .  A
C1051      H1056   1.084       .  S
C1052      C1053   1.405       .  A
C1052      C1135   1.479       .  S
C1053      C1054   1.402       .  A
C1053      H1057   1.083       .  S
C1054      C1055   1.402       .  A
C1054      C1113   1.468       .  S
C1055      H1058   1.085       .  S
N1059      N1060   1.321       .  A
N1059     Mn1088   2.207   1_554  S
N1061      N1063   1.315       .  A
N1061      N1062   1.320       .  A
N1062      C1068   1.353       .  A
N1063      N1064   1.321       .  A
N1064      C1068   1.354       .  A
N1065      N1066   1.320       .  A
N1065     Mn1077   2.201   1_554  S
C1067      C1163   1.467       .  S
C1067      N1212   1.351       .  A
N1069      N1075   1.316       .  A
N1069      N1070   1.323       .  A
N1069     Mn1099   2.209       .  S
N1070      C1078   1.354       .  A
N1071      N1072   1.323       .  A
N1071      N1073   1.316       .  A
N1071     Mn1077   2.210       .  S
N1072      C1079   1.354       .  A
N1073      N1074   1.317       .  A
N1073     Mn1099   2.193       .  S
N1074      C1079   1.349       .  A
N1075      N1076   1.317       .  A
N1075     Mn1077   2.194       .  S
N1076      C1078   1.350       .  A
Mn1077    Cl1101   2.545       .  S
N1080      N1081   1.318       .  A
N1080      N1086   1.316       .  A
N1080     Mn1088   2.196       .  S
N1081      C1089   1.350       .  A
N1082      N1084   1.316       .  A
N1082      N1083   1.317       .  A
N1082     Mn1100   2.194       .  S
N1083      C1090   1.350       .  A
N1084      N1085   1.323       .  A
N1084     Mn1088   2.209       .  S
N1085      C1090   1.354       .  A
N1086      N1087   1.323       .  A
N1086     Mn1100   2.208       .  S
N1087      C1089   1.354       .  A
Mn1088     N1209   2.202       .  S
N1091      N1092   1.321       .  A
N1091      N1097   1.315       .  A
N1091     Mn1245   2.200       .  S
N1092      C1102   1.354       .  A
N1093      N1094   1.320       .  A
N1093     Mn1100   2.202       .  S
N1094      C1249   1.352   1_655  A
N1095      N1096   1.320       .  A
N1095     Mn1099   2.201       .  S
N1097      N1098   1.320       .  A
N1098      C1102   1.354       .  A
Mn1099    Cl1101   2.546       .  S
C1103      C1153   1.464       .  S
N1104      N1105   1.317       .  A
N1104      N1110   1.316       .  A
N1104     Mn1133   2.193       .  S
N1105      C1112   1.349       .  A
N1106      N1108   1.316       .  A
N1106      N1107   1.317       .  A
N1106     Mn1122   2.195       .  S
N1107      C1113   1.350       .  A
N1108      N1109   1.323       .  A
N1108     Mn1133   2.209       .  S
N1109      C1113   1.354       .  A
N1110      N1111   1.323       .  A
N1110     Mn1122   2.210       .  S
N1111      C1112   1.354       .  A
N1114      N1120   1.315       .  A
N1114      N1115   1.321       .  A
N1115      C1123   1.354       .  A
N1116      N1117   1.320       .  A
N1116     Mn1122   2.202       .  S
N1118      N1119   1.321       .  A
N1118     Mn1144   2.206       .  S
N1120      N1121   1.320       .  A
N1121      C1123   1.353       .  A
Mn1122    Cl1146   2.545       .  S
C1124      C1160   1.467       .  S
C1124      N1263   1.352       .  A
N1125      N1126   1.320       .  A
N1125     Mn1133   2.201       .  S
N1127      N1129   1.315       .  A
N1127      N1128   1.320       .  A
N1128      C1135   1.354       .  A
N1129      N1130   1.321       .  A
N1129     Mn1279   2.200       .  S
N1130      C1135   1.354       .  A
N1131      N1132   1.320       .  A
N1131     Mn1145   2.202       .  S
N1132      C1280   1.352   1_655  A
Mn1133    Cl1146   2.545       .  S
C1134      C1150   1.464       .  S
N1136      N1137   1.323       .  A
N1136      N1142   1.316       .  A
N1136     Mn1144   2.209       .  S
N1137      C1147   1.354       .  A
N1138      N1139   1.323       .  A
N1138      N1140   1.316       .  A
N1138     Mn1145   2.208       .  S
N1139      C1148   1.354       .  A
N1140      N1141   1.317       .  A
N1140     Mn1144   2.195       .  S
N1141      C1148   1.350       .  A
N1142      N1143   1.317       .  A
N1142     Mn1145   2.194       .  S
N1143      C1147   1.350       .  A
Mn1144     N1260   2.202       .  S
C1149      C1150   1.403   1_655  A
C1149      C1154   1.402       .  A
C1149      H1156   1.083       .  S
C1151      C1152   1.394       .  A
C1151      F1158   1.358       .  S
C1152      H1157   1.084       .  S
C1153      C1154   1.404   1_455  A
C1154      F1155   1.357       .  S
C1159      C1160   1.403       .  A
C1159      C1164   1.403       .  A
C1159      H1166   1.083       .  S
C1161      C1162   1.395       .  A
C1161      F1168   1.358       .  S
C1162      H1167   1.084       .  S
C1163      C1164   1.404       .  A
C1164      F1165   1.357       .  S
C1169      C1170   1.402       .  A
C1169      C1174   1.402       .  A
C1169      C1225   1.467       .  S
C1170      C1171   1.402       .  A
C1170      H1175   1.085       .  S
C1171      C1172   1.401       .  A
C1171      C1236   1.467       .  S
C1172      C1173   1.405       .  A
C1172      H1176   1.084       .  S
C1173      C1174   1.404       .  A
C1173      C1214   1.478       .  S
C1174      H1177   1.084       .  S
C1178      C1179   1.402       .  A
C1178      C1183   1.402       .  A
C1178      C1258   1.467       .  S
C1179      C1180   1.402       .  A
C1179      H1184   1.085       .  S
C1180      C1181   1.401       .  A
C1180      C1293   1.467       .  S
C1181      C1182   1.404       .  A
C1181      H1185   1.084       .  S
C1182      C1183   1.404       .  A
C1182      C1269   1.478       .  S
C1183      H1186   1.084       .  S
C1187      C1188   1.402       .  A
C1187      C1192   1.402       .  A
C1187      C1235   1.467       .  S
C1188      C1189   1.402       .  A
C1188      H1193   1.085       .  S
C1189      C1190   1.402       .  A
C1189      C1224   1.468       .  S
C1190      C1191   1.405       .  A
C1190      H1194   1.083       .  S
C1191      C1192   1.405       .  A
C1191      C1248   1.479       .  S
C1192      H1195   1.084       .  S
C1196      C1197   1.402       .  A
C1196      C1201   1.402       .  A
C1196      C1294   1.467       .  S
C1197      C1198   1.405       .  A
C1197      H1202   1.084       .  S
C1198      C1199   1.405       .  A
C1198      C1281   1.479       .  S
C1199      C1200   1.402       .  A
C1199      H1203   1.083       .  S
C1200      C1201   1.402       .  A
C1200      C1259   1.468       .  S
C1201      H1204   1.085       .  S
N1205      N1206   1.321       .  A
N1205     Mn1234   2.207   1_554  S
N1207      N1209   1.315       .  A
N1207      N1208   1.320       .  A
N1208      C1214   1.353       .  A
N1209      N1210   1.321       .  A
N1210      C1214   1.354       .  A
N1211      N1212   1.320       .  A
N1211     Mn1223   2.201   1_554  S
C1213      C1309   1.467       .  S
N1215      N1221   1.316       .  A
N1215      N1216   1.323       .  A
N1215     Mn1245   2.209       .  S
N1216      C1224   1.354       .  A
N1217      N1218   1.323       .  A
N1217      N1219   1.316       .  A
N1217     Mn1223   2.210       .  S
N1218      C1225   1.354       .  A
N1219      N1220   1.317       .  A
N1219     Mn1245   2.193       .  S
N1220      C1225   1.349       .  A
N1221      N1222   1.317       .  A
N1221     Mn1223   2.194       .  S
N1222      C1224   1.350       .  A
Mn1223    Cl1247   2.545       .  S
N1226      N1227   1.318       .  A
N1226      N1232   1.316       .  A
N1226     Mn1234   2.196       .  S
N1227      C1235   1.350       .  A
N1228      N1230   1.316       .  A
N1228      N1229   1.317       .  A
N1228     Mn1246   2.194       .  S
N1229      C1236   1.350       .  A
N1230      N1231   1.323       .  A
N1230     Mn1234   2.209       .  S
N1231      C1236   1.354       .  A
N1232      N1233   1.323       .  A
N1232     Mn1246   2.208       .  S
N1233      C1235   1.354       .  A
N1237      N1238   1.321       .  A
N1237      N1243   1.315       .  A
N1238      C1248   1.354       .  A
N1239      N1240   1.320       .  A
N1239     Mn1246   2.202       .  S
N1241      N1242   1.320       .  A
N1241     Mn1245   2.201       .  S
N1243      N1244   1.320       .  A
N1244      C1248   1.354       .  A
Mn1245    Cl1247   2.546       .  S
C1249      C1299   1.464       .  S
N1250      N1251   1.317       .  A
N1250      N1256   1.316       .  A
N1250     Mn1279   2.193       .  S
N1251      C1258   1.349       .  A
N1252      N1254   1.316       .  A
N1252      N1253   1.317       .  A
N1252     Mn1268   2.195       .  S
N1253      C1259   1.350       .  A
N1254      N1255   1.323       .  A
N1254     Mn1279   2.209       .  S
N1255      C1259   1.354       .  A
N1256      N1257   1.323       .  A
N1256     Mn1268   2.210       .  S
N1257      C1258   1.354       .  A
N1260      N1266   1.315       .  A
N1260      N1261   1.321       .  A
N1261      C1269   1.354       .  A
N1262      N1263   1.320       .  A
N1262     Mn1268   2.202       .  S
N1264      N1265   1.321       .  A
N1264     Mn1290   2.206       .  S
N1266      N1267   1.320       .  A
N1267      C1269   1.353       .  A
Mn1268    Cl1292   2.545       .  S
C1270      C1306   1.467       .  S
N1271      N1272   1.320       .  A
N1271     Mn1279   2.201       .  S
N1273      N1275   1.315       .  A
N1273      N1274   1.320       .  A
N1274      C1281   1.354       .  A
N1275      N1276   1.321       .  A
N1276      C1281   1.354       .  A
N1277      N1278   1.320       .  A
N1277     Mn1291   2.202       .  S
Mn1279    Cl1292   2.545       .  S
C1280      C1296   1.464       .  S
N1282      N1283   1.323       .  A
N1282      N1288   1.316       .  A
N1282     Mn1290   2.209       .  S
N1283      C1293   1.354       .  A
N1284      N1285   1.323       .  A
N1284      N1286   1.316       .  A
N1284     Mn1291   2.208       .  S
N1285      C1294   1.354       .  A
N1286      N1287   1.317       .  A
N1286     Mn1290   2.195       .  S
N1287      C1294   1.350       .  A
N1288      N1289   1.317       .  A
N1288     Mn1291   2.194       .  S
N1289      C1293   1.350       .  A
C1295      C1296   1.403   1_655  A
C1295      C1300   1.402       .  A
C1295      H1302   1.083       .  S
C1297      C1298   1.394       .  A
C1297      F1304   1.358       .  S
C1298      H1303   1.084       .  S
C1299      C1300   1.404   1_455  A
C1300      F1301   1.357       .  S
C1305      C1306   1.403       .  A
C1305      C1310   1.403       .  A
C1305      H1312   1.083       .  S
C1307      C1308   1.395       .  A
C1307      F1314   1.358       .  S
C1308      H1313   1.084       .  S
C1309      C1310   1.404       .  A
C1310      F1311   1.357       .  S
