geometry optimzed in LAMMPS
_audit_creation_date              2020-11-30 
_audit_creation_method            'lammps2cif' 
_symmetry_space_group_name_H-M    'P1' 
_symmetry_Int_Tables_number       1 
_symmetry_cell_setting            triclinic 
loop_ 
_symmetry_equiv_pos_as_xyz 
  x,y,z 
_cell_length_a                    36.936602823749794 
_cell_length_b                    35.52162134864092 
_cell_length_c                    39.24727725495773 
_cell_angle_alpha                 89.78452551459029 
_cell_angle_beta                  90.2800998397649 
_cell_angle_gamma                 91.13424098189994 
loop_ 
_atom_site_label 
_atom_site_type_symbol 
_atom_site_fract_x 
_atom_site_fract_y 
_atom_site_fract_z 
_atom_site_charge 
O1          O  0.06306625  0.01350674  0.46304299    -0.78610
O2          O  0.41365519  0.46415754  0.48674055    -0.78640
O3          O  0.01145592  0.44946764  0.45134512    -0.78640
O4          O  0.49043822  0.05419301  0.44657233    -0.78590
O5          O  0.47184722  0.41800147  0.48336185    -0.78710
O6          O  0.02922925  0.07807698  0.48214862    -0.78630
O7          O  0.43580512  0.00266525  0.44777426    -0.78610
O8          O  0.08081331  0.45587622  0.47509620    -0.78650
C9          C  0.08516268  0.48619205  0.45856259     1.11080
C10         C  0.41165721  0.47963024  0.45751935     1.10960
C11         C  0.49078695  0.42113442  0.45625652     1.11100
C12         C  0.51197607  0.08052230  0.45446254     1.10980
O13         O  0.01123837  0.04932764  0.04730584    -0.78610
O14         O  0.49411437  0.44459089  0.05193023    -0.78690
O15         O  0.06480184  0.48911341  0.03495596    -0.78630
O16         O  0.41371789  0.02916264  0.01439980    -0.78610
O17         O  0.43839086  0.49181419  0.05210823    -0.78660
O18         O  0.07987536  0.04763693  0.02213879    -0.78620
O19         O  0.47059996  0.07867490  0.01574809    -0.78580
O20         O  0.03145213  0.42174215  0.01609401    -0.78650
Co21       Co  0.03464430  0.02890418  0.50678129     1.51530
Co22       Co  0.45671723  0.45691245  0.01810475     1.51690
Co23       Co  0.03541778  0.47147090  0.49147911     1.51570
Co24       Co  0.45498527  0.03885266  0.98142454     1.51470
O25         O  0.98876862  0.99880048  0.49923750    -1.40550
C26         C  0.98994511  0.07640879  0.04275541     1.11000
C27         C  0.01507284  0.41873824  0.04412302     1.11090
C28         C  0.08621748  0.01813974  0.03897767     1.11030
C29         C  0.41332875  0.51349619  0.04363706     1.11010
C30         C  0.00119311  0.21129448  0.12289744     0.04650
C31         C  0.00498315  0.24505294  0.10450979    -0.11500
C32         C  0.00968267  0.27945366  0.12162917     0.02150
C33         C  0.01057768  0.27957868  0.15741458    -0.10020
C34         C  0.00687009  0.24595475  0.17614222     0.04650
C35         C  0.00228300  0.21177266  0.15857603    -0.09440
H36         H  0.00384799  0.24448395  0.07694354     0.10240
H37         H  0.01392917  0.30606976  0.17076459     0.07770
H38         H  0.00017808  0.18545867  0.17254795     0.07620
C39         C  0.01167953  0.21910460  0.37797872     0.04650
C40         C  0.00829793  0.25346251  0.39494175    -0.11500
C41         C  0.00429884  0.28688758  0.37630426     0.02150
C42         C  0.00441051  0.28596686  0.34059113    -0.10020
C43         C  0.00785548  0.25158393  0.32345879     0.04650
C44         C  0.01123687  0.21821627  0.34232155    -0.09440
H45         H  0.00803934  0.25409698  0.42253053     0.10240
H46         H  0.00145963  0.31183975  0.32620860     0.07770
H47         H  0.01349280  0.19152152  0.32926583     0.07620
C48         C  0.21559535  0.01259880  0.12249519     0.04650
C49         C  0.21545476  0.01013443  0.15816984    -0.11500
C50         C  0.24817042  0.00965798  0.17664892     0.02150
C51         C  0.28113983  0.01179199  0.15892150    -0.10020
C52         C  0.28166368  0.01441202  0.12321048     0.04650
C53         C  0.24877102  0.01453168  0.10522128    -0.09440
H54         H  0.18986394  0.00953488  0.17156282     0.10240
H55         H  0.30647881  0.01129188  0.17293122     0.07770
H56         H  0.24894565  0.01573503  0.07764434     0.07620
C57         C  0.21384041  0.48934011  0.37664487     0.04650
C58         C  0.24619168  0.48158465  0.39388879    -0.11500
C59         C  0.27986414  0.48462951  0.37746782     0.02150
C60         C  0.28038338  0.49202605  0.34218256    -0.10020
C61         C  0.24786390  0.49660864  0.32391035     0.04650
C62         C  0.21485755  0.49643178  0.34152170    -0.09440
H63         H  0.24505423  0.47369872  0.42052323     0.10240
H64         H  0.30590067  0.49419687  0.32880206     0.07770
H65         H  0.19003526  0.50224408  0.32782248     0.07620
C66         C  0.22600074  0.47642027  0.26629223     0.25120
C67         C  0.24795795  0.50055221  0.28627728    -0.22990
C68         C  0.26985482  0.02795060  0.27004958     0.20030
C69         C  0.26974300  0.03115874  0.23446866     0.25060
C70         C  0.24793319  0.00680821  0.21443875    -0.22930
C71         C  0.22606741  0.47941419  0.23078145     0.19960
F72         F  0.20552438  0.45469722  0.21233194    -0.12890
F73         F  0.20517117  0.44911502  0.28117517    -0.15250
F74         F  0.29030708  0.05870619  0.21964386    -0.15250
F75         F  0.29066755  0.05224432  0.28867998    -0.12890
C76         C  0.03387667  0.27029045  0.26708534     0.25120
C77         C  0.00755032  0.25026357  0.28584718    -0.22990
C78         C  0.48130260  0.22837677  0.26855208     0.20030
C79         C  0.48108263  0.22688530  0.23295212     0.25060
C80         C  0.00751844  0.24682770  0.21399877    -0.22930
C81         C  0.03409897  0.26833640  0.23150937     0.19960
F82         F  0.06085839  0.28679148  0.21423785    -0.12890
F83         F  0.05996743  0.29098110  0.28331077    -0.15250
F84         F  0.45433281  0.20684138  0.21702303    -0.15250
F85         F  0.45530212  0.20916121  0.28618487    -0.12890
C86         C  0.04513503  0.13687841  0.43023498     0.25120
C87         C  0.01301398  0.11535252  0.43390889    -0.22990
C88         C  0.48071211  0.12845711  0.41926343     0.20030
C89         C  0.48053696  0.16235442  0.40124743     0.25060
C90         C  0.01256057  0.18364677  0.39739062    -0.22930
C91         C  0.04492623  0.17081134  0.41186421     0.19960
F92         F  0.07621531  0.19103133  0.40799768    -0.12890
F93         F  0.07667773  0.12476106  0.44392482    -0.15250
F94         F  0.44891157  0.17485087  0.38800350    -0.15250
F95         F  0.44891054  0.10921282  0.42357455    -0.12890
C96         C  0.46246829  0.36946856  0.42103872     0.25120
C97         C  0.99347897  0.38875800  0.43311716    -0.22990
C98         C  0.02792960  0.37484467  0.42547343     0.20030
C99         C  0.03131461  0.34194977  0.40652956     0.25060
C100        C  0.00040956  0.32277412  0.39441952    -0.22930
C101        C  0.46594905  0.33689625  0.40133754     0.19960
F102        F  0.43577087  0.31854060  0.38976711    -0.12890
F103        F  0.42897203  0.38198964  0.42853245    -0.15250
F104        F  0.06475760  0.32817098  0.40074985    -0.15250
F105        F  0.05833335  0.39180404  0.43812945    -0.12890
C106        C  0.46082759  0.12562391  0.07860238     0.25120
C107        C  0.99215351  0.10865817  0.06620217    -0.22990
C108        C  0.02630104  0.12495202  0.07369165     0.20030
C109        C  0.02905942  0.15816689  0.09247077     0.25060
C110        C  0.99783907  0.17528207  0.10458769    -0.22930
C111        C  0.46370287  0.15859102  0.09808057     0.19960
F112        F  0.43325273  0.17473963  0.10991774    -0.12890
F113        F  0.42762419  0.11030380  0.07182193    -0.15250
F114        F  0.06220403  0.17419852  0.09819723    -0.15260
F115        F  0.05696517  0.10989175  0.06117022    -0.12890
C116        C  0.03639183  0.31973941  0.07468902     0.25120
C117        C  0.01255374  0.31547953  0.10238992    -0.22990
C118        C  0.49114514  0.34598736  0.11171379     0.20030
C119        C  0.49329038  0.37991821  0.09377187     0.25060
C120        C  0.01651700  0.38413421  0.06548155    -0.22930
C121        C  0.03828895  0.35366650  0.05633923     0.19960
F122        F  0.06105111  0.35636819  0.02934383    -0.12890
F123        F  0.05808517  0.29112314  0.06549372    -0.15250
F124        F  0.47148594  0.40818414  0.10363637    -0.15250
F125        F  0.46687051  0.34253236  0.13747879    -0.12890
C126        C  0.34468830  0.46322312  0.38532167     0.25120
C127        C  0.31396544  0.48166603  0.39791207    -0.22990
C128        C  0.31605952  0.99789082  0.43067230     0.20030
C129        C  0.34716917  0.99461422  0.45057842     0.25060
C130        C  0.37781167  0.47702548  0.43773332    -0.22930
C131        C  0.37667123  0.46189969  0.40476417     0.19960
F132        F  0.40648906  0.44594194  0.39140919    -0.12890
F133        F  0.34381576  0.44614946  0.35444687    -0.15250
F134        F  0.34801729  0.01072380  0.48187622    -0.15250
F135        F  0.28863285  0.01864959  0.44307293    -0.12890
C136        C  0.11622167  0.47186992  0.40392328     0.25120
C137        C  0.11591308  0.49039978  0.43539458    -0.22990
C138        C  0.14691997  0.01004495  0.44663870     0.20030
C139        C  0.17833314  0.01052669  0.42707018     0.25060
C140        C  0.17939529  0.49093738  0.39592606    -0.22930
C141        C  0.14774037  0.47221527  0.38418365     0.19960
F142        F  0.14775676  0.45284995  0.35443418    -0.12890
F143        F  0.08625721  0.45287973  0.39268824    -0.15250
F144        F  0.20782486  0.03002009  0.43875839    -0.15250
F145        F  0.14722959  0.02748824  0.47735522    -0.12890
C146        C  0.35501282  0.04404765  0.06042196     0.25120
C147        C  0.38139817  0.51664387  0.06632918    -0.22990
C148        C  0.37525216  0.48970204  0.09235969     0.20030
C149        C  0.34316995  0.48943039  0.11105352     0.25060
C150        C  0.31650982  0.01617409  0.10452022    -0.22930
C151        C  0.32292961  0.04379528  0.07932946     0.19960
F152        F  0.29806703  0.07062011  0.07299914    -0.12890
F153        F  0.35996973  0.07089556  0.03608650    -0.15250
F154        F  0.33740355  0.46168289  0.13442204    -0.15250
F155        F  0.39942423  0.46221888  0.09880037    -0.12890
C156        C  0.15397770  0.48666639  0.10628577     0.25120
C157        C  0.18124725  0.01465159  0.10300395    -0.22990
C158        C  0.17609542  0.04453050  0.08014913     0.20030
C159        C  0.14476600  0.04613007  0.06031857     0.25060
C160        C  0.11777400  0.01753670  0.06255507    -0.22930
C161        C  0.12256291  0.48794802  0.08608803     0.19960
F162        F  0.09710288  0.46009881  0.08942180    -0.12890
F163        F  0.15834449  0.45738567  0.12816047    -0.15250
F164        F  0.14157468  0.07535877  0.03817263    -0.15250
F165        F  0.20157848  0.07240377  0.07699086    -0.12890
O166        O  0.06306626  0.01350676  0.96304300    -0.78610
O167        O  0.41365520  0.46415754  0.98674057    -0.78640
O168        O  0.01145592  0.44946764  0.95134513    -0.78640
O169        O  0.49043823  0.05419300  0.94657232    -0.78590
O170        O  0.47184723  0.41800148  0.98336188    -0.78710
O171        O  0.02922924  0.07807699  0.98214862    -0.78630
O172        O  0.43580513  0.00266523  0.94777426    -0.78610
O173        O  0.08081331  0.45587623  0.97509621    -0.78650
C174        C  0.08516268  0.48619205  0.95856259     1.11080
C175        C  0.41165722  0.47963023  0.95751937     1.10960
C176        C  0.49078694  0.42113442  0.95625654     1.11100
C177        C  0.51197607  0.08052230  0.95446252     1.10980
O178        O  0.01123838  0.04932762  0.54730584    -0.78610
O179        O  0.49411435  0.44459087  0.55193021    -0.78690
O180        O  0.06480184  0.48911339  0.53495596    -0.78630
O181        O  0.41371788  0.02916262  0.51439981    -0.78610
O182        O  0.43839084  0.49181416  0.55210822    -0.78660
O183        O  0.07987537  0.04763691  0.52213878    -0.78620
O184        O  0.47059996  0.07867489  0.51574812    -0.78580
O185        O  0.03145213  0.42174213  0.51609400    -0.78650
Co186      Co  0.03464431  0.02890420  0.00678130     1.51530
Co187      Co  0.45671722  0.45691243  0.51810473     1.51690
Co188      Co  0.03541778  0.47147091  0.99147912     1.51570
Co189      Co  0.45498526  0.03885266  0.48142456     1.51470
O190        O  0.98876863  0.99880048  0.99923751    -1.40550
C191        C  0.98994513  0.07640877  0.54275542     1.11000
C192        C  0.01507284  0.41873822  0.54412301     1.11090
C193        C  0.08621748  0.01813972  0.53897767     1.11030
C194        C  0.41332874  0.51349617  0.54363705     1.11010
C195        C  0.00119322  0.21129447  0.62289744     0.04650
C196        C  0.00498327  0.24505292  0.60450979    -0.11500
C197        C  0.00968277  0.27945364  0.62162917     0.02150
C198        C  0.01057777  0.27957867  0.65741458    -0.10020
C199        C  0.00687018  0.24595474  0.67614222     0.04650
C200        C  0.00228309  0.21177265  0.65857603    -0.09440
H201        H  0.00384812  0.24448393  0.57694354     0.10240
H202        H  0.01392924  0.30606975  0.67076459     0.07770
H203        H  0.00017816  0.18545866  0.67254796     0.07620
C204        C  0.01167955  0.21910460  0.87797872     0.04650
C205        C  0.00829795  0.25346251  0.89494175    -0.11500
C206        C  0.00429886  0.28688758  0.87630427     0.02150
C207        C  0.00441054  0.28596687  0.84059114    -0.10020
C208        C  0.00785551  0.25158394  0.82345879     0.04650
C209        C  0.01123689  0.21821627  0.84232155    -0.09440
H210        H  0.00803935  0.25409697  0.92253053     0.10240
H211        H  0.00145966  0.31183976  0.82620861     0.07770
H212        H  0.01349283  0.19152153  0.82926582     0.07620
C213        C  0.21559534  0.01259878  0.62249520     0.04650
C214        C  0.21545475  0.01013442  0.65816985    -0.11500
C215        C  0.24817041  0.00965796  0.67664893     0.02150
C216        C  0.28113982  0.01179196  0.65892151    -0.10020
C217        C  0.28166367  0.01441198  0.62321049     0.04650
C218        C  0.24877101  0.01453165  0.60522129    -0.09440
H219        H  0.18986393  0.00953487  0.67156283     0.10240
H220        H  0.30647881  0.01129185  0.67293122     0.07770
H221        H  0.24894564  0.01573500  0.57764435     0.07620
C222        C  0.21384042  0.48934008  0.87664488     0.04650
C223        C  0.24619169  0.48158461  0.89388880    -0.11500
C224        C  0.27986415  0.48462948  0.87746784     0.02150
C225        C  0.28038340  0.49202603  0.84218258    -0.10020
C226        C  0.24786392  0.49660863  0.82391036     0.04650
C227        C  0.21485757  0.49643177  0.84152171    -0.09440
H228        H  0.24505424  0.47369866  0.92052323     0.10240
H229        H  0.30590068  0.49419686  0.82880208     0.07770
H230        H  0.19003528  0.50224407  0.82782249     0.07620
C231        C  0.22600075  0.47642026  0.76629225     0.25120
C232        C  0.24795796  0.50055220  0.78627729    -0.22990
C233        C  0.26985483  0.02795059  0.77004958     0.20030
C234        C  0.26974300  0.03115872  0.73446866     0.25060
C235        C  0.24793319  0.00680819  0.71443876    -0.22930
C236        C  0.22606741  0.47941418  0.73078147     0.19960
F237        F  0.20552438  0.45469722  0.71233196    -0.12890
F238        F  0.20517117  0.44911502  0.78117519    -0.15250
F239        F  0.29030708  0.05870617  0.71964386    -0.15250
F240        F  0.29066756  0.05224431  0.78867998    -0.12890
C241        C  0.03387671  0.27029047  0.76708535     0.25120
C242        C  0.00755036  0.25026358  0.78584718    -0.22990
C243        C  0.48130257  0.22837677  0.76855207     0.20030
C244        C  0.48108262  0.22688529  0.73295211     0.25060
C245        C  0.00751851  0.24682770  0.71399877    -0.22930
C246        C  0.03409903  0.26833641  0.73150938     0.19960
F247        F  0.06085845  0.28679150  0.71423786    -0.12890
F248        F  0.05996746  0.29098114  0.78331078    -0.15250
F249        F  0.45433282  0.20684136  0.71702302    -0.15250
F250        F  0.45530209  0.20916120  0.78618485    -0.12890
C251        C  0.04513503  0.13687843  0.93023503     0.25120
C252        C  0.01301399  0.11535251  0.93390887    -0.22990
C253        C  0.48071208  0.12845709  0.91926340     0.20030
C254        C  0.48053692  0.16235440  0.90124741     0.25060
C255        C  0.01256059  0.18364676  0.89739061    -0.22930
C256        C  0.04492623  0.17081137  0.91186426     0.19960
F257        F  0.07621530  0.19103141  0.90799780    -0.12890
F258        F  0.07667771  0.12476113  0.94392493    -0.15250
F259        F  0.44891152  0.17485083  0.88800347    -0.15250
F260        F  0.44891053  0.10921277  0.92357451    -0.12890
C261        C  0.46246824  0.36946855  0.92103878     0.25120
C262        C  0.99347898  0.38875799  0.93311718    -0.22990
C263        C  0.02792961  0.37484468  0.92547344     0.20030
C264        C  0.03131462  0.34194978  0.90652956     0.25060
C265        C  0.00040957  0.32277412  0.89441953    -0.22930
C266        C  0.46594898  0.33689624  0.90133761     0.19960
F267        F  0.43577080  0.31854057  0.88976722    -0.12890
F268        F  0.42897200  0.38198962  0.92853255    -0.15250
F269        F  0.06475762  0.32817100  0.90074983    -0.15250
F270        F  0.05833335  0.39180405  0.93812944    -0.12890
C271        C  0.46082763  0.12562383  0.57860249     0.25120
C272        C  0.99215356  0.10865815  0.56620217    -0.22990
C273        C  0.02630110  0.12495210  0.57369149     0.20030
C274        C  0.02905950  0.15816696  0.59247061     0.25060
C275        C  0.99783917  0.17528205  0.60458769    -0.22930
C276        C  0.46370292  0.15859094  0.59808068     0.19960
F277        F  0.43325280  0.17473950  0.60991793    -0.12890
F278        F  0.42762424  0.11030367  0.57182212    -0.15250
F279        F  0.06220410  0.17419867  0.59819692    -0.15260
F280        F  0.05696519  0.10989191  0.56116992    -0.12890
C281        C  0.03639191  0.31973941  0.57468902     0.25120
C282        C  0.01255382  0.31547951  0.60238992    -0.22990
C283        C  0.49114514  0.34598733  0.61171376     0.20030
C284        C  0.49329036  0.37991817  0.59377184     0.25060
C285        C  0.01651702  0.38413419  0.56548154    -0.22930
C286        C  0.03828900  0.35366650  0.55633923     0.19960
F287        F  0.06105117  0.35636821  0.52934383    -0.12890
F288        F  0.05808528  0.29112316  0.56549373    -0.15250
F289        F  0.47148589  0.40818408  0.60363632    -0.15250
F290        F  0.46687049  0.34253231  0.63747875    -0.12890
C291        C  0.34468832  0.46322311  0.88532167     0.25120
C292        C  0.31396545  0.48166600  0.89791208    -0.22990
C293        C  0.31605953  0.99789080  0.93067232     0.20030
C294        C  0.34716917  0.99461420  0.95057843     0.25060
C295        C  0.37781168  0.47702545  0.93773333    -0.22930
C296        C  0.37667126  0.46189968  0.90476418     0.19960
F297        F  0.40648909  0.44594196  0.89140919    -0.12890
F298        F  0.34381579  0.44614948  0.85444687    -0.15250
F299        F  0.34801729  0.01072377  0.98187624    -0.15250
F300        F  0.28863285  0.01864958  0.94307294    -0.12890
C301        C  0.11622167  0.47186993  0.90392328     0.25120
C302        C  0.11591309  0.49039978  0.93539458    -0.22990
C303        C  0.14691997  0.01004497  0.94663870     0.20030
C304        C  0.17833314  0.01052671  0.92707018     0.25060
C305        C  0.17939530  0.49093736  0.89592607    -0.22930
C306        C  0.14774037  0.47221527  0.88418365     0.19960
F307        F  0.14775676  0.45284995  0.85443418    -0.12890
F308        F  0.08625720  0.45287975  0.89268823    -0.15250
F309        F  0.20782486  0.03002012  0.93875838    -0.15250
F310        F  0.14722958  0.02748827  0.97735521    -0.12890
C311        C  0.35501281  0.04404763  0.56042197     0.25120
C312        C  0.38139816  0.51664385  0.56632918    -0.22990
C313        C  0.37525215  0.48970200  0.59235968     0.20030
C314        C  0.34316993  0.48943036  0.61105351     0.25060
C315        C  0.31650980  0.01617405  0.60452023    -0.22930
C316        C  0.32292960  0.04379525  0.57932947     0.19960
F317        F  0.29806702  0.07062009  0.57299916    -0.12890
F318        F  0.35996973  0.07089554  0.53608652    -0.15250
F319        F  0.33740354  0.46168285  0.63442203    -0.15250
F320        F  0.39942421  0.46221884  0.59880035    -0.12890
C321        C  0.15397769  0.48666638  0.60628579     0.25120
C322        C  0.18124724  0.01465158  0.60300396    -0.22990
C323        C  0.17609541  0.04453047  0.58014913     0.20030
C324        C  0.14476600  0.04613004  0.56031857     0.25060
C325        C  0.11777399  0.01753668  0.56255507    -0.22930
C326        C  0.12256290  0.48794801  0.58608805     0.19960
F327        F  0.09710287  0.46009880  0.58942181    -0.12890
F328        F  0.15834448  0.45738567  0.62816050    -0.15250
F329        F  0.14157469  0.07535873  0.53817261    -0.15250
F330        F  0.20157849  0.07240373  0.57699085    -0.12890
O331        O  0.06306625  0.51350676  0.46304301    -0.78610
O332        O  0.41365519  0.96415753  0.48674057    -0.78640
O333        O  0.01145595  0.94946764  0.45134512    -0.78640
O334        O  0.49043823  0.55419302  0.44657233    -0.78590
O335        O  0.47184721  0.91800147  0.48336187    -0.78710
O336        O  0.02922923  0.57807698  0.48214864    -0.78630
O337        O  0.43580512  0.50266527  0.44777426    -0.78610
O338        O  0.08081333  0.95587623  0.47509623    -0.78650
C339        C  0.08516269  0.98619205  0.45856259     1.11080
C340        C  0.41165722  0.97963022  0.45751937     1.10960
C341        C  0.49078692  0.92113442  0.45625652     1.11100
C342        C  0.51197607  0.58052231  0.45446253     1.10980
O343        O  0.01123836  0.54932764  0.04730584    -0.78610
O344        O  0.49411437  0.94459089  0.05193023    -0.78690
O345        O  0.06480184  0.98911341  0.03495597    -0.78630
O346        O  0.41371789  0.52916264  0.01439980    -0.78610
O347        O  0.43839086  0.99181420  0.05210824    -0.78660
O348        O  0.07987535  0.54763694  0.02213880    -0.78620
O349        O  0.47059997  0.57867490  0.01574810    -0.78580
O350        O  0.03145214  0.92174215  0.01609402    -0.78650
Co351      Co  0.03464430  0.52890419  0.50678131     1.51530
Co352      Co  0.45671723  0.95691245  0.01810476     1.51690
Co353      Co  0.03541779  0.97147091  0.49147912     1.51570
Co354      Co  0.45498527  0.53885266  0.98142455     1.51470
O355        O  0.98876862  0.49880047  0.49923751    -1.40550
C356        C  0.98994510  0.57640879  0.04275541     1.11000
C357        C  0.01507284  0.91873824  0.04412302     1.11090
C358        C  0.08621747  0.51813974  0.03897766     1.11030
C359        C  0.41332875  0.01349620  0.04363706     1.11010
C360        C  0.00119309  0.71129448  0.12289744     0.04650
C361        C  0.00498312  0.74505294  0.10450979    -0.11500
C362        C  0.00968266  0.77945366  0.12162916     0.02150
C363        C  0.01057768  0.77957867  0.15741457    -0.10020
C364        C  0.00687010  0.74595475  0.17614222     0.04650
C365        C  0.00228299  0.71177266  0.15857603    -0.09440
H366        H  0.00384795  0.74448395  0.07694354     0.10240
H367        H  0.01392919  0.80606976  0.17076459     0.07770
H368        H  0.00017808  0.68545867  0.17254796     0.07620
C369        C  0.01167967  0.71910459  0.37797871     0.04650
C370        C  0.00829810  0.75346250  0.39494175    -0.11500
C371        C  0.00429900  0.78688758  0.37630427     0.02150
C372        C  0.00441064  0.78596686  0.34059114    -0.10020
C373        C  0.00785559  0.75158393  0.32345879     0.04650
C374        C  0.01123698  0.71821627  0.34232154    -0.09440
H375        H  0.00803952  0.75409697  0.42253053     0.10240
H376        H  0.00145975  0.81183976  0.32620862     0.07770
H377        H  0.01349289  0.69152152  0.32926582     0.07620
C378        C  0.21559534  0.51259877  0.12249518     0.04650
C379        C  0.21545475  0.51013440  0.15816983    -0.11500
C380        C  0.24817041  0.50965794  0.17664890     0.02150
C381        C  0.28113982  0.51179195  0.15892149    -0.10020
C382        C  0.28166367  0.51441198  0.12321047     0.04650
C383        C  0.24877102  0.51453165  0.10522127    -0.09440
H384        H  0.18986393  0.50953484  0.17156281     0.10240
H385        H  0.30647880  0.51129184  0.17293121     0.07770
H386        H  0.24894565  0.51573501  0.07764433     0.07620
C387        C  0.21384042  0.98934007  0.37664488     0.04650
C388        C  0.24619169  0.98158458  0.39388879    -0.11500
C389        C  0.27986415  0.98462946  0.37746783     0.02150
C390        C  0.28038340  0.99202603  0.34218257    -0.10020
C391        C  0.24786392  0.99660863  0.32391036     0.04650
C392        C  0.21485757  0.99643177  0.34152170    -0.09440
H393        H  0.24505424  0.97369862  0.42052322     0.10240
H394        H  0.30590069  0.99419686  0.32880207     0.07770
H395        H  0.19003528  0.00224409  0.32782249     0.07620
C396        C  0.22600076  0.97642029  0.26629224     0.25120
C397        C  0.24795797  0.00055222  0.28627729    -0.22990
C398        C  0.26985481  0.52795059  0.27004956     0.20030
C399        C  0.26974299  0.53115871  0.23446864     0.25060
C400        C  0.24793318  0.50680817  0.21443874    -0.22930
C401        C  0.22606742  0.97941422  0.23078146     0.19960
F402        F  0.20552439  0.95469725  0.21233194    -0.12890
F403        F  0.20517118  0.94911503  0.28117517    -0.15250
F404        F  0.29030707  0.55870616  0.21964384    -0.15250
F405        F  0.29066753  0.55224432  0.28867995    -0.12890
C406        C  0.03387675  0.77029045  0.26708532     0.25120
C407        C  0.00755040  0.75026357  0.28584718    -0.22990
C408        C  0.48130256  0.72837676  0.26855206     0.20030
C409        C  0.48108263  0.72688528  0.23295210     0.25060
C410        C  0.00751848  0.74682770  0.21399876    -0.22930
C411        C  0.03409903  0.76833639  0.23150935     0.19960
F412        F  0.06085844  0.78679146  0.21423781    -0.12890
F413        F  0.05996753  0.79098109  0.28331073    -0.15250
F414        F  0.45433282  0.70684136  0.21702300    -0.15250
F415        F  0.45530207  0.70916119  0.28618483    -0.12890
C416        C  0.04513507  0.63687842  0.43023506     0.25120
C417        C  0.01301403  0.61535250  0.43390887    -0.22990
C418        C  0.48071204  0.62845714  0.41926350     0.20030
C419        C  0.48053687  0.66235445  0.40124751     0.25060
C420        C  0.01256069  0.68364675  0.39739060    -0.22930
C421        C  0.04492630  0.67081135  0.41186429     0.19960
F422        F  0.07621538  0.69103138  0.40799786    -0.12890
F423        F  0.07667773  0.62476110  0.44392500    -0.15250
F424        F  0.44891146  0.67485092  0.38800364    -0.15250
F425        F  0.44891049  0.60921286  0.42357469    -0.12890
C426        C  0.46246821  0.86946854  0.42103879     0.25120
C427        C  0.99347905  0.88875798  0.43311717    -0.22990
C428        C  0.02792969  0.87484463  0.42547354     0.20030
C429        C  0.03131473  0.84194972  0.40652967     0.25060
C430        C  0.00040970  0.82277411  0.39441953    -0.22930
C431        C  0.46594894  0.83689623  0.40133761     0.19960
F432        F  0.43577074  0.81854055  0.38976725    -0.12890
F433        F  0.42897196  0.88198960  0.42853258    -0.15250
F434        F  0.06475773  0.82817090  0.40075005    -0.15250
F435        F  0.05833341  0.89180396  0.43812964    -0.12890
C436        C  0.46082765  0.62562385  0.07860248     0.25120
C437        C  0.99215349  0.60865816  0.06620217    -0.22990
C438        C  0.02630102  0.62495203  0.07369163     0.20030
C439        C  0.02905940  0.65816690  0.09247076     0.25060
C440        C  0.99783904  0.67528207  0.10458769    -0.22930
C441        C  0.46370295  0.65859095  0.09808068     0.19960
F442        F  0.43325283  0.67473949  0.10991796    -0.12890
F443        F  0.42762426  0.61030367  0.07182214    -0.15250
F444        F  0.06220401  0.67419854  0.09819720    -0.15260
F445        F  0.05696515  0.60989178  0.06117019    -0.12890
C446        C  0.03639181  0.81973940  0.07468901     0.25120
C447        C  0.01255373  0.81547953  0.10238992    -0.22990
C448        C  0.49114518  0.84598735  0.11171379     0.20030
C449        C  0.49329040  0.87991820  0.09377186     0.25060
C450        C  0.01651699  0.88413421  0.06548155    -0.22930
C451        C  0.03828893  0.85366649  0.05633922     0.19960
F452        F  0.06105108  0.85636817  0.02934381    -0.12890
F453        F  0.05808513  0.79112312  0.06549370    -0.15250
F454        F  0.47148593  0.90818411  0.10363635    -0.15250
F455        F  0.46687053  0.84253234  0.13747878    -0.12890
C456        C  0.34468832  0.96322310  0.38532167     0.25120
C457        C  0.31396544  0.98166598  0.39791208    -0.22990
C458        C  0.31605953  0.49789090  0.43067228     0.20030
C459        C  0.34716918  0.49461430  0.45057839     0.25060
C460        C  0.37781168  0.97702545  0.43773333    -0.22930
C461        C  0.37667126  0.96189968  0.40476417     0.19960
F462        F  0.40648909  0.94594196  0.39140918    -0.12890
F463        F  0.34381580  0.94614947  0.35444686    -0.15250
F464        F  0.34801731  0.51072391  0.48187618    -0.15250
F465        F  0.28863287  0.51864971  0.44307289    -0.12890
C466        C  0.11622166  0.97186995  0.40392326     0.25120
C467        C  0.11591309  0.99039977  0.43539458    -0.22990
C468        C  0.14691994  0.51004502  0.44663867     0.20030
C469        C  0.17833311  0.51052676  0.42707016     0.25060
C470        C  0.17939530  0.99093735  0.39592607    -0.22930
C471        C  0.14774036  0.97221528  0.38418364     0.19960
F472        F  0.14775674  0.95284999  0.35443415    -0.12890
F473        F  0.08625719  0.95287979  0.39268821    -0.15250
F474        F  0.20782482  0.53002020  0.43875834    -0.15250
F475        F  0.14722954  0.52748834  0.47735518    -0.12890
C476        C  0.35501282  0.54404764  0.06042197     0.25120
C477        C  0.38139818  0.01664389  0.06632919    -0.22990
C478        C  0.37525217  0.98970207  0.09235971     0.20030
C479        C  0.34316996  0.98943043  0.11105354     0.25060
C480        C  0.31650981  0.51617406  0.10452021    -0.22930
C481        C  0.32292961  0.54379526  0.07932946     0.19960
F482        F  0.29806703  0.57062010  0.07299915    -0.12890
F483        F  0.35996974  0.57089556  0.03608652    -0.15250
F484        F  0.33740357  0.96168294  0.13442208    -0.15250
F485        F  0.39942425  0.96221892  0.09880040    -0.12890
C486        C  0.15397771  0.98666641  0.10628579     0.25120
C487        C  0.18124724  0.51465157  0.10300394    -0.22990
C488        C  0.17609541  0.54453048  0.08014912     0.20030
C489        C  0.14476599  0.54613006  0.06031857     0.25060
C490        C  0.11777399  0.51753669  0.06255506    -0.22930
C491        C  0.12256292  0.98794804  0.08608804     0.19960
F492        F  0.09710289  0.96009882  0.08942181    -0.12890
F493        F  0.15834450  0.95738570  0.12816049    -0.15250
F494        F  0.14157467  0.57535876  0.03817263    -0.15250
F495        F  0.20157848  0.57240375  0.07699085    -0.12890
O496        O  0.06306626  0.51350676  0.96304300    -0.78610
O497        O  0.41365520  0.96415754  0.98674058    -0.78640
O498        O  0.01145594  0.94946764  0.95134513    -0.78640
O499        O  0.49043824  0.55419301  0.94657232    -0.78590
O500        O  0.47184722  0.91800148  0.98336188    -0.78710
O501        O  0.02922923  0.57807699  0.98214862    -0.78630
O502        O  0.43580513  0.50266525  0.94777426    -0.78610
O503        O  0.08081332  0.95587623  0.97509622    -0.78650
C504        C  0.08516269  0.98619205  0.95856260     1.11080
C505        C  0.41165722  0.97963021  0.95751938     1.10960
C506        C  0.49078691  0.92113442  0.95625654     1.11100
C507        C  0.51197608  0.58052231  0.95446252     1.10980
O508        O  0.01123836  0.54932762  0.54730585    -0.78610
O509        O  0.49411436  0.94459087  0.55193022    -0.78690
O510        O  0.06480183  0.98911340  0.53495598    -0.78630
O511        O  0.41371788  0.52916263  0.51439980    -0.78610
O512        O  0.43839085  0.99181417  0.55210823    -0.78660
O513        O  0.07987535  0.54763692  0.52213881    -0.78620
O514        O  0.47059997  0.57867489  0.51574812    -0.78580
O515        O  0.03145213  0.92174213  0.51609401    -0.78650
Co516      Co  0.03464430  0.52890420  0.00678130     1.51530
Co517      Co  0.45671722  0.95691243  0.51810475     1.51690
Co518      Co  0.03541779  0.97147091  0.99147912     1.51570
Co519      Co  0.45498527  0.53885267  0.48142455     1.51470
O520        O  0.98876862  0.49880048  0.99923751    -1.40550
C521        C  0.98994510  0.57640877  0.54275543     1.11000
C522        C  0.01507282  0.91873822  0.54412300     1.11090
C523        C  0.08621747  0.51813972  0.53897767     1.11030
C524        C  0.41332874  0.01349617  0.54363706     1.11010
C525        C  0.00119310  0.71129447  0.62289744     0.04650
C526        C  0.00498314  0.74505292  0.60450979    -0.11500
C527        C  0.00968266  0.77945364  0.62162916     0.02150
C528        C  0.01057766  0.77957867  0.65741457    -0.10020
C529        C  0.00687008  0.74595475  0.67614222     0.04650
C530        C  0.00228299  0.71177266  0.65857604    -0.09440
H531        H  0.00384798  0.74448393  0.57694354     0.10240
H532        H  0.01392915  0.80606976  0.67076458     0.07770
H533        H  0.00017807  0.68545866  0.67254797     0.07620
C534        C  0.01167956  0.71910460  0.87797872     0.04650
C535        C  0.00829797  0.75346251  0.89494175    -0.11500
C536        C  0.00429888  0.78688758  0.87630427     0.02150
C537        C  0.00441053  0.78596687  0.84059114    -0.10020
C538        C  0.00785549  0.75158394  0.82345879     0.04650
C539        C  0.01123688  0.71821628  0.84232154    -0.09440
H540        H  0.00803939  0.75409697  0.92253053     0.10240
H541        H  0.00145965  0.81183977  0.82620862     0.07770
H542        H  0.01349281  0.69152153  0.82926582     0.07620
C543        C  0.21559534  0.51259875  0.62249520     0.04650
C544        C  0.21545475  0.51013439  0.65816985    -0.11500
C545        C  0.24817041  0.50965793  0.67664892     0.02150
C546        C  0.28113982  0.51179193  0.65892150    -0.10020
C547        C  0.28166367  0.51441196  0.62321048     0.04650
C548        C  0.24877101  0.51453163  0.60522128    -0.09440
H549        H  0.18986393  0.50953483  0.67156283     0.10240
H550        H  0.30647881  0.51129182  0.67293122     0.07770
H551        H  0.24894564  0.51573499  0.57764434     0.07620
C552        C  0.21384042  0.98934007  0.87664489     0.04650
C553        C  0.24619170  0.98158458  0.89388880    -0.11500
C554        C  0.27986416  0.98462946  0.87746784     0.02150
C555        C  0.28038340  0.99202603  0.84218258    -0.10020
C556        C  0.24786392  0.99660863  0.82391037     0.04650
C557        C  0.21485757  0.99643177  0.84152171    -0.09440
H558        H  0.24505424  0.97369862  0.92052323     0.10240
H559        H  0.30590069  0.99419686  0.82880208     0.07770
H560        H  0.19003529  0.00224408  0.82782250     0.07620
C561        C  0.22600075  0.97642028  0.76629225     0.25120
C562        C  0.24795797  0.00055221  0.78627730    -0.22990
C563        C  0.26985482  0.52795057  0.77004957     0.20030
C564        C  0.26974300  0.53115869  0.73446865     0.25060
C565        C  0.24793319  0.50680816  0.71443875    -0.22930
C566        C  0.22606741  0.97941421  0.73078147     0.19960
F567        F  0.20552438  0.95469725  0.71233196    -0.12890
F568        F  0.20517117  0.94911503  0.78117519    -0.15250
F569        F  0.29030708  0.55870614  0.71964385    -0.15250
F570        F  0.29066755  0.55224430  0.78867996    -0.12890
C571        C  0.03387666  0.77029047  0.76708534     0.25120
C572        C  0.00755032  0.75026359  0.78584718    -0.22990
C573        C  0.48130258  0.72837676  0.76855206     0.20030
C574        C  0.48108265  0.72688527  0.73295210     0.25060
C575        C  0.00751843  0.74682771  0.71399877    -0.22930
C576        C  0.03409896  0.76833642  0.73150936     0.19960
F577        F  0.06085837  0.78679150  0.71423784    -0.12890
F578        F  0.05996743  0.79098114  0.78331076    -0.15250
F579        F  0.45433286  0.70684133  0.71702299    -0.15250
F580        F  0.45530208  0.70916117  0.78618482    -0.12890
C581        C  0.04513503  0.63687842  0.93023502     0.25120
C582        C  0.01301399  0.61535251  0.93390886    -0.22990
C583        C  0.48071204  0.62845712  0.91926348     0.20030
C584        C  0.48053686  0.66235444  0.90124749     0.25060
C585        C  0.01256060  0.68364676  0.89739061    -0.22930
C586        C  0.04492623  0.67081136  0.91186425     0.19960
F587        F  0.07621531  0.69103138  0.90799778    -0.12890
F588        F  0.07667771  0.62476110  0.94392491    -0.15250
F589        F  0.44891144  0.67485089  0.88800362    -0.15250
F590        F  0.44891049  0.60921283  0.92357465    -0.12890
C591        C  0.46246819  0.86946853  0.92103883     0.25120
C592        C  0.99347900  0.88875799  0.93311718    -0.22990
C593        C  0.02792963  0.87484466  0.92547347     0.20030
C594        C  0.03131464  0.84194976  0.90652960     0.25060
C595        C  0.00040959  0.82277412  0.89441954    -0.22930
C596        C  0.46594891  0.83689622  0.90133766     0.19960
F597        F  0.43577071  0.81854052  0.88976733    -0.12890
F598        F  0.42897195  0.88198958  0.92853266    -0.15250
F599        F  0.06475763  0.82817096  0.90074990    -0.15250
F600        F  0.05833337  0.89180402  0.93812950    -0.12890
C601        C  0.46082769  0.62562380  0.57860255     0.25120
C602        C  0.99215350  0.60865814  0.56620219    -0.22990
C603        C  0.02630103  0.62495202  0.57369164     0.20030
C604        C  0.02905941  0.65816689  0.59247076     0.25060
C605        C  0.99783906  0.67528205  0.60458770    -0.22930
C606        C  0.46370300  0.65859091  0.59808074     0.19960
F607        F  0.43325289  0.67473943  0.60991807    -0.12890
F608        F  0.42762429  0.61030361  0.57182225    -0.15250
F609        F  0.06220402  0.67419854  0.59819719    -0.15260
F610        F  0.05696516  0.60989177  0.56117018    -0.12890
C611        C  0.03639182  0.81973939  0.57468901     0.25120
C612        C  0.01255372  0.81547951  0.60238991    -0.22990
C613        C  0.49114519  0.84598732  0.61171377     0.20030
C614        C  0.49329039  0.87991816  0.59377184     0.25060
C615        C  0.01651698  0.88413419  0.56548153    -0.22930
C616        C  0.03828893  0.85366648  0.55633921     0.19960
F617        F  0.06105110  0.85636816  0.52934382    -0.12890
F618        F  0.05808515  0.79112312  0.56549372    -0.15250
F619        F  0.47148590  0.90818406  0.60363632    -0.15250
F620        F  0.46687053  0.84253229  0.63747875    -0.12890
C621        C  0.34468833  0.96322309  0.88532168     0.25120
C622        C  0.31396545  0.98166597  0.89791209    -0.22990
C623        C  0.31605953  0.49789084  0.93067231     0.20030
C624        C  0.34716918  0.49461424  0.95057842     0.25060
C625        C  0.37781168  0.97702543  0.93773334    -0.22930
C626        C  0.37667126  0.96189967  0.90476418     0.19960
F627        F  0.40648910  0.94594195  0.89140919    -0.12890
F628        F  0.34381580  0.94614947  0.85444687    -0.15250
F629        F  0.34801730  0.51072382  0.98187622    -0.15250
F630        F  0.28863286  0.51864962  0.94307293    -0.12890
C631        C  0.11622168  0.97186993  0.90392328     0.25120
C632        C  0.11591310  0.99039977  0.93539459    -0.22990
C633        C  0.14691995  0.51004499  0.94663869     0.20030
C634        C  0.17833312  0.51052673  0.92707017     0.25060
C635        C  0.17939531  0.99093735  0.89592608    -0.22930
C636        C  0.14774037  0.97221527  0.88418365     0.19960
F637        F  0.14775676  0.95284997  0.85443417    -0.12890
F638        F  0.08625720  0.95287976  0.89268823    -0.15250
F639        F  0.20782484  0.53002015  0.93875837    -0.15250
F640        F  0.14722956  0.52748830  0.97735520    -0.12890
C641        C  0.35501281  0.54404763  0.56042198     0.25120
C642        C  0.38139817  0.01664386  0.56632919    -0.22990
C643        C  0.37525216  0.98970203  0.59235971     0.20030
C644        C  0.34316994  0.98943039  0.61105354     0.25060
C645        C  0.31650980  0.51617404  0.60452022    -0.22930
C646        C  0.32292961  0.54379524  0.57932947     0.19960
F647        F  0.29806703  0.57062009  0.57299918    -0.12890
F648        F  0.35996974  0.57089556  0.53608654    -0.15250
F649        F  0.33740355  0.96168289  0.63442207    -0.15250
F650        F  0.39942423  0.96221888  0.59880039    -0.12890
C651        C  0.15397768  0.98666640  0.60628581     0.25120
C652        C  0.18124724  0.51465156  0.60300396    -0.22990
C653        C  0.17609541  0.54453046  0.58014914     0.20030
C654        C  0.14476599  0.54613004  0.56031858     0.25060
C655        C  0.11777399  0.51753667  0.56255507    -0.22930
C656        C  0.12256290  0.98794803  0.58608806     0.19960
F657        F  0.09710286  0.96009883  0.58942184    -0.12890
F658        F  0.15834447  0.95738570  0.62816052    -0.15250
F659        F  0.14157468  0.57535874  0.53817263    -0.15250
F660        F  0.20157848  0.57240373  0.57699086    -0.12890
O661        O  0.56306625  0.01350675  0.46304301    -0.78610
O662        O  0.91365519  0.46415754  0.48674057    -0.78640
O663        O  0.51145595  0.44946763  0.45134512    -0.78640
O664        O  0.99043823  0.05419302  0.44657233    -0.78590
O665        O  0.97184722  0.41800148  0.48336187    -0.78710
O666        O  0.52922923  0.07807698  0.48214863    -0.78630
O667        O  0.93580511  0.00266528  0.44777426    -0.78610
O668        O  0.58081332  0.45587623  0.47509622    -0.78650
C669        C  0.58516269  0.48619204  0.45856259     1.11080
C670        C  0.91165722  0.47963023  0.45751937     1.10960
C671        C  0.99078691  0.42113442  0.45625652     1.11100
C672        C  0.01197607  0.08052231  0.45446254     1.10980
O673        O  0.51123836  0.04932764  0.04730584    -0.78610
O674        O  0.99411437  0.44459090  0.05193023    -0.78690
O675        O  0.56480184  0.48911341  0.03495597    -0.78630
O676        O  0.91371789  0.02916264  0.01439980    -0.78610
O677        O  0.93839086  0.49181420  0.05210823    -0.78660
O678        O  0.57987535  0.04763694  0.02213880    -0.78620
O679        O  0.97059997  0.07867490  0.01574810    -0.78580
O680        O  0.53145214  0.42174214  0.01609402    -0.78650
Co681      Co  0.53464429  0.02890418  0.50678131     1.51530
Co682      Co  0.95671723  0.45691245  0.01810476     1.51690
Co683      Co  0.53541779  0.47147090  0.49147912     1.51570
Co684      Co  0.95498527  0.03885267  0.98142455     1.51470
O685        O  0.48876861  0.99880047  0.49923751    -1.40550
C686        C  0.48994509  0.07640879  0.04275540     1.11000
C687        C  0.51507284  0.41873824  0.04412302     1.11090
C688        C  0.58621748  0.01813974  0.03897766     1.11030
C689        C  0.91332875  0.51349619  0.04363706     1.11010
C690        C  0.50119306  0.21129448  0.12289744     0.04650
C691        C  0.50498309  0.24505294  0.10450979    -0.11500
C692        C  0.50968263  0.27945365  0.12162916     0.02150
C693        C  0.51057766  0.27957867  0.15741457    -0.10020
C694        C  0.50687008  0.24595475  0.17614222     0.04650
C695        C  0.50228297  0.21177266  0.15857603    -0.09440
H696        H  0.50384791  0.24448395  0.07694354     0.10240
H697        H  0.51392917  0.30606975  0.17076459     0.07770
H698        H  0.50017806  0.18545866  0.17254796     0.07620
C699        C  0.51167966  0.21910459  0.37797871     0.04650
C700        C  0.50829809  0.25346250  0.39494174    -0.11500
C701        C  0.50429899  0.28688757  0.37630427     0.02150
C702        C  0.50441063  0.28596686  0.34059114    -0.10020
C703        C  0.50785558  0.25158393  0.32345879     0.04650
C704        C  0.51123697  0.21821626  0.34232154    -0.09440
H705        H  0.50803951  0.25409696  0.42253052     0.10240
H706        H  0.50145974  0.31183975  0.32620861     0.07770
H707        H  0.51349288  0.19152151  0.32926582     0.07620
C708        C  0.71559534  0.01259878  0.12249518     0.04650
C709        C  0.71545475  0.01013441  0.15816983    -0.11500
C710        C  0.74817041  0.00965795  0.17664891     0.02150
C711        C  0.78113982  0.01179196  0.15892149    -0.10020
C712        C  0.78166367  0.01441199  0.12321047     0.04650
C713        C  0.74877102  0.01453166  0.10522127    -0.09440
H714        H  0.68986393  0.00953485  0.17156281     0.10240
H715        H  0.80647881  0.01129186  0.17293121     0.07770
H716        H  0.74894565  0.01573502  0.07764433     0.07620
C717        C  0.71384042  0.48934007  0.37664488     0.04650
C718        C  0.74619169  0.48158458  0.39388879    -0.11500
C719        C  0.77986415  0.48462946  0.37746783     0.02150
C720        C  0.78038340  0.49202603  0.34218257    -0.10020
C721        C  0.74786392  0.49660863  0.32391036     0.04650
C722        C  0.71485757  0.49643177  0.34152171    -0.09440
H723        H  0.74505424  0.47369862  0.42052322     0.10240
H724        H  0.80590069  0.49419686  0.32880208     0.07770
H725        H  0.69003528  0.50224408  0.32782249     0.07620
C726        C  0.72600075  0.47642028  0.26629224     0.25120
C727        C  0.74795797  0.50055221  0.28627729    -0.22990
C728        C  0.76985480  0.02795060  0.27004956     0.20030
C729        C  0.76974299  0.03115872  0.23446864     0.25060
C730        C  0.74793318  0.00680818  0.21443874    -0.22930
C731        C  0.72606742  0.47941421  0.23078146     0.19960
F732        F  0.70552439  0.45469724  0.21233195    -0.12890
F733        F  0.70517118  0.44911503  0.28117518    -0.15250
F734        F  0.79030706  0.05870617  0.21964384    -0.15250
F735        F  0.79066753  0.05224433  0.28867996    -0.12890
C736        C  0.53387673  0.27029044  0.26708532     0.25120
C737        C  0.50755039  0.25026357  0.28584718    -0.22990
C738        C  0.98130255  0.22837676  0.26855206     0.20030
C739        C  0.98108261  0.22688529  0.23295210     0.25060
C740        C  0.50751846  0.24682769  0.21399876    -0.22930
C741        C  0.53409901  0.26833639  0.23150935     0.19960
F742        F  0.56085842  0.28679146  0.21423781    -0.12890
F743        F  0.55996752  0.29098108  0.28331073    -0.15250
F744        F  0.95433280  0.20684136  0.21702300    -0.15250
F745        F  0.95530206  0.20916119  0.28618483    -0.12890
C746        C  0.54513507  0.13687841  0.43023506     0.25120
C747        C  0.51301402  0.11535250  0.43390887    -0.22990
C748        C  0.98071203  0.12845717  0.41926355     0.20030
C749        C  0.98053686  0.16235448  0.40124755     0.25060
C750        C  0.51256068  0.18364674  0.39739061    -0.22930
C751        C  0.54492629  0.17081134  0.41186428     0.19960
F752        F  0.57621537  0.19103137  0.40799785    -0.12890
F753        F  0.57667773  0.12476110  0.44392499    -0.15250
F754        F  0.94891143  0.17485096  0.38800371    -0.15250
F755        F  0.94891047  0.10921290  0.42357476    -0.12890
C756        C  0.96246820  0.36946855  0.42103879     0.25120
C757        C  0.49347904  0.38875798  0.43311717    -0.22990
C758        C  0.52792968  0.37484463  0.42547353     0.20030
C759        C  0.53131472  0.34194973  0.40652966     0.25060
C760        C  0.50040969  0.32277410  0.39441953    -0.22930
C761        C  0.96594893  0.33689624  0.40133762     0.19960
F762        F  0.93577073  0.31854056  0.38976726    -0.12890
F763        F  0.92897196  0.38198961  0.42853259    -0.15250
F764        F  0.56475772  0.32817091  0.40075003    -0.15250
F765        F  0.55833340  0.39180397  0.43812962    -0.12890
C766        C  0.96082763  0.12562388  0.07860243     0.25120
C767        C  0.49215347  0.10865816  0.06620217    -0.22990
C768        C  0.52630101  0.12495199  0.07369171     0.20030
C769        C  0.52905938  0.15816686  0.09247083     0.25060
C770        C  0.49783902  0.17528207  0.10458769    -0.22930
C771        C  0.96370292  0.15859099  0.09808062     0.19960
F772        F  0.93325279  0.17473957  0.10991784    -0.12890
F773        F  0.92762424  0.11030375  0.07182203    -0.15250
F774        F  0.56220399  0.17419846  0.09819734    -0.15260
F775        F  0.55696515  0.10989169  0.06117033    -0.12890
C776        C  0.53639178  0.31973939  0.07468901     0.25120
C777        C  0.51255370  0.31547952  0.10238992    -0.22990
C778        C  0.99114516  0.34598736  0.11171379     0.20030
C779        C  0.99329039  0.37991820  0.09377186     0.25060
C780        C  0.51651698  0.38413420  0.06548155    -0.22930
C781        C  0.53828891  0.35366648  0.05633921     0.19960
F782        F  0.56105106  0.35636815  0.02934381    -0.12890
F783        F  0.55808510  0.29112310  0.06549370    -0.15250
F784        F  0.97148592  0.40818412  0.10363635    -0.15250
F785        F  0.96687051  0.34253234  0.13747878    -0.12890
C786        C  0.84468833  0.46322310  0.38532167     0.25120
C787        C  0.81396545  0.48166598  0.39791208    -0.22990
C788        C  0.81605953  0.99789090  0.43067228     0.20030
C789        C  0.84716918  0.99461430  0.45057839     0.25060
C790        C  0.87781168  0.47702545  0.43773333    -0.22930
C791        C  0.87667126  0.46189968  0.40476417     0.19960
F792        F  0.90648910  0.44594197  0.39140919    -0.12890
F793        F  0.84381580  0.44614948  0.35444686    -0.15250
F794        F  0.84801731  0.01072391  0.48187619    -0.15250
F795        F  0.78863287  0.01864971  0.44307289    -0.12890
C796        C  0.61622167  0.47186994  0.40392327     0.25120
C797        C  0.61591309  0.49039977  0.43539459    -0.22990
C798        C  0.64691994  0.01004501  0.44663867     0.20030
C799        C  0.67833311  0.01052675  0.42707016     0.25060
C800        C  0.67939530  0.49093735  0.39592607    -0.22930
C801        C  0.64774036  0.47221528  0.38418364     0.19960
F802        F  0.64775674  0.45284999  0.35443415    -0.12890
F803        F  0.58625719  0.45287978  0.39268822    -0.15250
F804        F  0.70782482  0.03002019  0.43875835    -0.15250
F805        F  0.64722954  0.02748832  0.47735518    -0.12890
C806        C  0.85501282  0.04404765  0.06042197     0.25120
C807        C  0.88139817  0.51664388  0.06632919    -0.22990
C808        C  0.87525217  0.48970205  0.09235970     0.20030
C809        C  0.84316995  0.48943041  0.11105353     0.25060
C810        C  0.81650981  0.01617407  0.10452021    -0.22930
C811        C  0.82292961  0.04379527  0.07932946     0.19960
F812        F  0.79806703  0.07062011  0.07299915    -0.12890
F813        F  0.85996974  0.07089556  0.03608651    -0.15250
F814        F  0.83740356  0.46168291  0.13442206    -0.15250
F815        F  0.89942424  0.46221890  0.09880039    -0.12890
C816        C  0.65397770  0.48666640  0.10628579     0.25120
C817        C  0.68124725  0.01465158  0.10300394    -0.22990
C818        C  0.67609541  0.04453049  0.08014913     0.20030
C819        C  0.64476599  0.04613006  0.06031857     0.25060
C820        C  0.61777399  0.01753669  0.06255506    -0.22930
C821        C  0.62256291  0.48794803  0.08608805     0.19960
F822        F  0.59710288  0.46009882  0.08942182    -0.12890
F823        F  0.65834449  0.45738569  0.12816050    -0.15250
F824        F  0.64157467  0.07535877  0.03817263    -0.15250
F825        F  0.70157848  0.07240376  0.07699086    -0.12890
O826        O  0.56306626  0.01350676  0.96304301    -0.78610
O827        O  0.91365519  0.46415754  0.98674058    -0.78640
O828        O  0.51145594  0.44946764  0.95134513    -0.78640
O829        O  0.99043824  0.05419301  0.94657232    -0.78590
O830        O  0.97184722  0.41800148  0.98336188    -0.78710
O831        O  0.52922923  0.07807699  0.98214861    -0.78630
O832        O  0.93580513  0.00266525  0.94777426    -0.78610
O833        O  0.58081332  0.45587623  0.97509622    -0.78650
C834        C  0.58516269  0.48619205  0.95856260     1.11080
C835        C  0.91165722  0.47963022  0.95751937     1.10960
C836        C  0.99078692  0.42113442  0.95625653     1.11100
C837        C  0.01197608  0.08052231  0.95446252     1.10980
O838        O  0.51123836  0.04932761  0.54730585    -0.78610
O839        O  0.99411436  0.44459087  0.55193023    -0.78690
O840        O  0.56480183  0.48911340  0.53495597    -0.78630
O841        O  0.91371788  0.02916264  0.51439981    -0.78610
O842        O  0.93839085  0.49181418  0.55210824    -0.78660
O843        O  0.57987535  0.04763692  0.52213881    -0.78620
O844        O  0.97059998  0.07867489  0.51574812    -0.78580
O845        O  0.53145213  0.42174213  0.51609401    -0.78650
Co846      Co  0.53464430  0.02890420  0.00678130     1.51530
Co847      Co  0.95671722  0.45691243  0.51810475     1.51690
Co848      Co  0.53541779  0.47147091  0.99147912     1.51570
Co849      Co  0.95498527  0.03885267  0.48142456     1.51470
O850        O  0.48876862  0.99880048  0.99923751    -1.40550
C851        C  0.48994510  0.07640876  0.54275542     1.11000
C852        C  0.51507282  0.41873822  0.54412300     1.11090
C853        C  0.58621747  0.01813972  0.53897767     1.11030
C854        C  0.91332875  0.51349618  0.54363707     1.11010
C855        C  0.50119311  0.21129446  0.62289744     0.04650
C856        C  0.50498315  0.24505292  0.60450979    -0.11500
C857        C  0.50968267  0.27945364  0.62162916     0.02150
C858        C  0.51057767  0.27957867  0.65741457    -0.10020
C859        C  0.50687009  0.24595475  0.67614222     0.04650
C860        C  0.50228300  0.21177265  0.65857604    -0.09440
H861        H  0.50384798  0.24448392  0.57694354     0.10240
H862        H  0.51392916  0.30606975  0.67076458     0.07770
H863        H  0.50017808  0.18545866  0.67254797     0.07620
C864        C  0.51167959  0.21910459  0.87797871     0.04650
C865        C  0.50829801  0.25346250  0.89494175    -0.11500
C866        C  0.50429891  0.28688758  0.87630427     0.02150
C867        C  0.50441056  0.28596687  0.84059114    -0.10020
C868        C  0.50785551  0.25158395  0.82345879     0.04650
C869        C  0.51123691  0.21821627  0.84232154    -0.09440
H870        H  0.50803943  0.25409697  0.92253053     0.10240
H871        H  0.50145967  0.31183977  0.82620862     0.07770
H872        H  0.51349282  0.19152153  0.82926581     0.07620
C873        C  0.71559533  0.01259874  0.62249520     0.04650
C874        C  0.71545475  0.01013438  0.65816985    -0.11500
C875        C  0.74817041  0.00965792  0.67664892     0.02150
C876        C  0.78113982  0.01179192  0.65892150    -0.10020
C877        C  0.78166366  0.01441195  0.62321048     0.04650
C878        C  0.74877101  0.01453162  0.60522129    -0.09440
H879        H  0.68986393  0.00953483  0.67156283     0.10240
H880        H  0.80647880  0.01129181  0.67293122     0.07770
H881        H  0.74894563  0.01573498  0.57764434     0.07620
C882        C  0.71384042  0.48934007  0.87664488     0.04650
C883        C  0.74619170  0.48158458  0.89388880    -0.11500
C884        C  0.77986416  0.48462946  0.87746784     0.02150
C885        C  0.78038340  0.49202602  0.84218258    -0.10020
C886        C  0.74786392  0.49660862  0.82391036     0.04650
C887        C  0.71485757  0.49643176  0.84152171    -0.09440
H888        H  0.74505424  0.47369863  0.92052323     0.10240
H889        H  0.80590069  0.49419685  0.82880208     0.07770
H890        H  0.69003528  0.50224408  0.82782249     0.07620
C891        C  0.72600075  0.47642027  0.76629225     0.25120
C892        C  0.74795797  0.50055220  0.78627730    -0.22990
C893        C  0.76985482  0.02795057  0.77004957     0.20030
C894        C  0.76974300  0.03115869  0.73446865     0.25060
C895        C  0.74793319  0.00680816  0.71443875    -0.22930
C896        C  0.72606741  0.47941420  0.73078147     0.19960
F897        F  0.70552438  0.45469724  0.71233196    -0.12890
F898        F  0.70517118  0.44911502  0.78117519    -0.15250
F899        F  0.79030708  0.05870613  0.71964385    -0.15250
F900        F  0.79066756  0.05224430  0.78867996    -0.12890
C901        C  0.53387668  0.27029048  0.76708533     0.25120
C902        C  0.50755034  0.25026359  0.78584718    -0.22990
C903        C  0.98130261  0.22837676  0.76855206     0.20030
C904        C  0.98108268  0.22688528  0.73295210     0.25060
C905        C  0.50751845  0.24682770  0.71399876    -0.22930
C906        C  0.53409898  0.26833642  0.73150936     0.19960
F907        F  0.56085839  0.28679150  0.71423783    -0.12890
F908        F  0.55996744  0.29098114  0.78331075    -0.15250
F909        F  0.95433289  0.20684134  0.71702299    -0.15250
F910        F  0.95530211  0.20916118  0.78618482    -0.12890
C911        C  0.54513503  0.13687844  0.93023505     0.25120
C912        C  0.51301400  0.11535250  0.93390885    -0.22990
C913        C  0.98071206  0.12845711  0.91926345     0.20030
C914        C  0.98053689  0.16235443  0.90124746     0.25060
C915        C  0.51256062  0.18364675  0.89739060    -0.22930
C916        C  0.54492624  0.17081137  0.91186429     0.19960
F917        F  0.57621531  0.19103143  0.90799786    -0.12890
F918        F  0.57667770  0.12476114  0.94392499    -0.15250
F919        F  0.94891148  0.17485087  0.88800356    -0.15250
F920        F  0.94891051  0.10921281  0.92357460    -0.12890
C921        C  0.96246821  0.36946853  0.92103882     0.25120
C922        C  0.49347901  0.38875799  0.93311718    -0.22990
C923        C  0.52792964  0.37484465  0.92547349     0.20030
C924        C  0.53131466  0.34194975  0.90652961     0.25060
C925        C  0.50040962  0.32277411  0.89441954    -0.22930
C926        C  0.96594894  0.33689622  0.90133764     0.19960
F927        F  0.93577074  0.31854053  0.88976730    -0.12890
F928        F  0.92897196  0.38198958  0.92853262    -0.15250
F929        F  0.56475766  0.32817095  0.90074993    -0.15250
F930        F  0.55833338  0.39180401  0.93812953    -0.12890
C931        C  0.96082771  0.12562378  0.57860259     0.25120
C932        C  0.49215350  0.10865814  0.56620219    -0.22990
C933        C  0.52630103  0.12495202  0.57369163     0.20030
C934        C  0.52905942  0.15816689  0.59247075     0.25060
C935        C  0.49783907  0.17528204  0.60458770    -0.22930
C936        C  0.96370303  0.15859089  0.59808078     0.19960
F937        F  0.93325292  0.17473938  0.60991815    -0.12890
F938        F  0.92762431  0.11030356  0.57182233    -0.15250
F939        F  0.56220402  0.17419854  0.59819717    -0.15260
F940        F  0.55696516  0.10989177  0.56117017    -0.12890
C941        C  0.53639182  0.31973938  0.57468901     0.25120
C942        C  0.51255372  0.31547950  0.60238991    -0.22990
C943        C  0.99114520  0.34598732  0.61171377     0.20030
C944        C  0.99329040  0.37991817  0.59377184     0.25060
C945        C  0.51651698  0.38413418  0.56548153    -0.22930
C946        C  0.53828893  0.35366647  0.55633921     0.19960
F947        F  0.56105109  0.35636816  0.52934381    -0.12890
F948        F  0.55808516  0.29112311  0.56549371    -0.15250
F949        F  0.97148590  0.40818406  0.60363632    -0.15250
F950        F  0.96687055  0.34253229  0.63747876    -0.12890
C951        C  0.84468833  0.46322309  0.88532168     0.25120
C952        C  0.81396545  0.48166598  0.89791208    -0.22990
C953        C  0.81605953  0.99789084  0.93067231     0.20030
C954        C  0.84716918  0.99461424  0.95057842     0.25060
C955        C  0.87781168  0.47702544  0.93773334    -0.22930
C956        C  0.87667126  0.46189967  0.90476418     0.19960
F957        F  0.90648909  0.44594194  0.89140920    -0.12890
F958        F  0.84381580  0.44614946  0.85444687    -0.15250
F959        F  0.84801730  0.01072381  0.98187623    -0.15250
F960        F  0.78863286  0.01864962  0.94307294    -0.12890
C961        C  0.61622167  0.47186993  0.90392328     0.25120
C962        C  0.61591310  0.49039977  0.93539459    -0.22990
C963        C  0.64691995  0.01004499  0.94663869     0.20030
C964        C  0.67833312  0.01052673  0.92707018     0.25060
C965        C  0.67939530  0.49093735  0.89592607    -0.22930
C966        C  0.64774037  0.47221527  0.88418365     0.19960
F967        F  0.64775676  0.45284996  0.85443417    -0.12890
F968        F  0.58625720  0.45287976  0.89268823    -0.15250
F969        F  0.70782484  0.03002015  0.93875837    -0.15250
F970        F  0.64722956  0.02748830  0.97735520    -0.12890
C971        C  0.85501281  0.04404762  0.56042198     0.25120
C972        C  0.88139817  0.51664386  0.56632919    -0.22990
C973        C  0.87525216  0.48970203  0.59235971     0.20030
C974        C  0.84316994  0.48943039  0.61105353     0.25060
C975        C  0.81650980  0.01617403  0.60452022    -0.22930
C976        C  0.82292960  0.04379524  0.57932947     0.19960
F977        F  0.79806703  0.07062009  0.57299918    -0.12890
F978        F  0.85996974  0.07089556  0.53608654    -0.15250
F979        F  0.83740355  0.46168289  0.63442206    -0.15250
F980        F  0.89942423  0.46221888  0.59880039    -0.12890
C981        C  0.65397769  0.48666640  0.60628580     0.25120
C982        C  0.68124723  0.01465155  0.60300396    -0.22990
C983        C  0.67609541  0.04453045  0.58014914     0.20030
C984        C  0.64476599  0.04613003  0.56031858     0.25060
C985        C  0.61777398  0.01753666  0.56255507    -0.22930
C986        C  0.62256290  0.48794803  0.58608806     0.19960
F987        F  0.59710287  0.46009882  0.58942183    -0.12890
F988        F  0.65834447  0.45738569  0.62816051    -0.15250
F989        F  0.64157468  0.07535873  0.53817263    -0.15250
F990        F  0.70157848  0.07240372  0.57699086    -0.12890
O991        O  0.56306625  0.51350674  0.46304299    -0.78610
O992        O  0.91365519  0.96415754  0.48674055    -0.78640
O993        O  0.51145592  0.94946764  0.45134512    -0.78640
O994        O  0.99043823  0.55419302  0.44657233    -0.78590
O995        O  0.97184723  0.91800148  0.48336185    -0.78710
O996        O  0.52922924  0.57807698  0.48214862    -0.78630
O997        O  0.93580512  0.50266525  0.44777427    -0.78610
O998        O  0.58081331  0.95587622  0.47509620    -0.78650
C999        C  0.58516268  0.98619205  0.45856259     1.11080
C1000       C  0.91165721  0.97963025  0.45751936     1.10960
C1001       C  0.99078695  0.92113442  0.45625652     1.11100
C1002       C  0.01197608  0.58052231  0.45446254     1.10980
O1003       O  0.51123837  0.54932764  0.04730584    -0.78610
O1004       O  0.99411437  0.94459090  0.05193023    -0.78690
O1005       O  0.56480184  0.98911341  0.03495595    -0.78630
O1006       O  0.91371788  0.52916264  0.01439980    -0.78610
O1007       O  0.93839086  0.99181420  0.05210823    -0.78660
O1008       O  0.57987537  0.54763693  0.02213879    -0.78620
O1009       O  0.97059996  0.57867490  0.01574810    -0.78580
O1010       O  0.53145213  0.92174215  0.01609401    -0.78650
Co1011     Co  0.53464430  0.52890418  0.50678129     1.51530
Co1012     Co  0.95671723  0.95691245  0.01810476     1.51690
Co1013     Co  0.53541778  0.97147090  0.49147912     1.51570
Co1014     Co  0.95498526  0.53885266  0.98142455     1.51470
O1015       O  0.48876862  0.49880047  0.49923750    -1.40550
C1016       C  0.48994511  0.57640879  0.04275541     1.11000
C1017       C  0.51507284  0.91873824  0.04412302     1.11090
C1018       C  0.58621748  0.51813974  0.03897767     1.11030
C1019       C  0.91332875  0.01349620  0.04363706     1.11010
C1020       C  0.50119313  0.71129448  0.12289743     0.04650
C1021       C  0.50498318  0.74505294  0.10450979    -0.11500
C1022       C  0.50968270  0.77945366  0.12162917     0.02150
C1023       C  0.51057770  0.77957867  0.15741458    -0.10020
C1024       C  0.50687011  0.74595475  0.17614222     0.04650
C1025       C  0.50228302  0.71177266  0.15857603    -0.09440
H1026       H  0.50384802  0.74448396  0.07694354     0.10240
H1027       H  0.51392919  0.80606976  0.17076459     0.07770
H1028       H  0.50017809  0.68545866  0.17254795     0.07620
C1029       C  0.51167955  0.71910460  0.37797872     0.04650
C1030       C  0.50829795  0.75346251  0.39494175    -0.11500
C1031       C  0.50429886  0.78688758  0.37630426     0.02150
C1032       C  0.50441052  0.78596686  0.34059113    -0.10020
C1033       C  0.50785549  0.75158393  0.32345879     0.04650
C1034       C  0.51123688  0.71821626  0.34232155    -0.09440
H1035       H  0.50803936  0.75409698  0.42253053     0.10240
H1036       H  0.50145965  0.81183975  0.32620860     0.07770
H1037       H  0.51349281  0.69152151  0.32926583     0.07620
C1038       C  0.71559534  0.51259878  0.12249520     0.04650
C1039       C  0.71545476  0.51013442  0.15816985    -0.11500
C1040       C  0.74817042  0.50965796  0.17664892     0.02150
C1041       C  0.78113982  0.51179197  0.15892150    -0.10020
C1042       C  0.78166367  0.51441199  0.12321049     0.04650
C1043       C  0.74877102  0.51453166  0.10522129    -0.09440
H1044       H  0.68986394  0.50953486  0.17156282     0.10240
H1045       H  0.80647881  0.51129186  0.17293122     0.07770
H1046       H  0.74894565  0.51573502  0.07764434     0.07620
C1047       C  0.71384041  0.98934011  0.37664487     0.04650
C1048       C  0.74619168  0.98158464  0.39388879    -0.11500
C1049       C  0.77986414  0.98462951  0.37746783     0.02150
C1050       C  0.78038338  0.99202605  0.34218256    -0.10020
C1051       C  0.74786390  0.99660864  0.32391035     0.04650
C1052       C  0.71485755  0.99643178  0.34152170    -0.09440
H1053       H  0.74505423  0.97369871  0.42052323     0.10240
H1054       H  0.80590067  0.99419688  0.32880206     0.07770
H1055       H  0.69003526  0.00224408  0.32782248     0.07620
C1056       C  0.72600074  0.97642028  0.26629223     0.25120
C1057       C  0.74795795  0.00055221  0.28627728    -0.22990
C1058       C  0.76985482  0.52795059  0.27004958     0.20030
C1059       C  0.76974300  0.53115872  0.23446866     0.25060
C1060       C  0.74793319  0.50680819  0.21443875    -0.22930
C1061       C  0.72606741  0.97941420  0.23078145     0.19960
F1062       F  0.70552438  0.95469723  0.21233194    -0.12890
F1063       F  0.70517117  0.94911502  0.28117517    -0.15250
F1064       F  0.79030708  0.55870617  0.21964386    -0.15250
F1065       F  0.79066755  0.55224431  0.28867997    -0.12890
C1066       C  0.53387668  0.77029045  0.26708534     0.25120
C1067       C  0.50755033  0.75026357  0.28584718    -0.22990
C1068       C  0.98130262  0.72837678  0.26855208     0.20030
C1069       C  0.98108265  0.72688530  0.23295212     0.25060
C1070       C  0.50751846  0.74682769  0.21399876    -0.22930
C1071       C  0.53409899  0.76833639  0.23150937     0.19960
F1072       F  0.56085841  0.78679147  0.21423785    -0.12890
F1073       F  0.55996745  0.79098110  0.28331077    -0.15250
F1074       F  0.95433283  0.70684138  0.21702303    -0.15250
F1075       F  0.95530213  0.70916121  0.28618486    -0.12890
C1076       C  0.54513503  0.63687842  0.43023501     0.25120
C1077       C  0.51301399  0.61535252  0.43390888    -0.22990
C1078       C  0.98071211  0.62845711  0.41926342     0.20030
C1079       C  0.98053697  0.66235442  0.40124742     0.25060
C1080       C  0.51256059  0.68364676  0.39739062    -0.22930
C1081       C  0.54492623  0.67081135  0.41186424     0.19960
F1082       F  0.57621531  0.69103136  0.40799774    -0.12890
F1083       F  0.57667772  0.62476109  0.44392488    -0.15250
F1084       F  0.94891158  0.67485087  0.38800349    -0.15250
F1085       F  0.94891055  0.60921282  0.42357453    -0.12890
C1086       C  0.96246829  0.86946856  0.42103872     0.25120
C1087       C  0.49347898  0.88875799  0.43311716    -0.22990
C1088       C  0.52792961  0.87484467  0.42547344     0.20030
C1089       C  0.53131462  0.84194977  0.40652956     0.25060
C1090       C  0.50040957  0.82277412  0.39441952    -0.22930
C1091       C  0.96594906  0.83689626  0.40133754     0.19960
F1092       F  0.93577088  0.81854061  0.38976709    -0.12890
F1093       F  0.92897204  0.88198965  0.42853243    -0.15250
F1094       F  0.56475761  0.82817098  0.40074986    -0.15250
F1095       F  0.55833335  0.89180403  0.43812946    -0.12890
C1096       C  0.96082761  0.62562387  0.07860244     0.25120
C1097       C  0.49215352  0.60865817  0.06620216    -0.22990
C1098       C  0.52630105  0.62495206  0.07369158     0.20030
C1099       C  0.52905943  0.65816693  0.09247070     0.25060
C1100       C  0.49783909  0.67528207  0.10458768    -0.22930
C1101       C  0.96370290  0.65859098  0.09808064     0.19960
F1102       F  0.93325278  0.67473954  0.10991787    -0.12890
F1103       F  0.92762422  0.61030372  0.07182205    -0.15250
F1104       F  0.56220404  0.67419860  0.09819710    -0.15260
F1105       F  0.55696517  0.60989183  0.06117009    -0.12890
C1106       C  0.53639185  0.81973942  0.07468902     0.25120
C1107       C  0.51255376  0.81547953  0.10238992    -0.22990
C1108       C  0.99114516  0.84598736  0.11171379     0.20030
C1109       C  0.99329039  0.87991821  0.09377187     0.25060
C1110       C  0.51651701  0.88413421  0.06548155    -0.22930
C1111       C  0.53828896  0.85366651  0.05633923     0.19960
F1112       F  0.56105113  0.85636820  0.02934383    -0.12890
F1113       F  0.55808519  0.79112315  0.06549373    -0.15250
F1114       F  0.97148594  0.90818413  0.10363637    -0.15250
F1115       F  0.96687052  0.84253235  0.13747879    -0.12890
C1116       C  0.84468830  0.96322312  0.38532167     0.25120
C1117       C  0.81396544  0.98166603  0.39791207    -0.22990
C1118       C  0.81605952  0.49789081  0.43067231     0.20030
C1119       C  0.84716917  0.49461422  0.45057842     0.25060
C1120       C  0.87781167  0.97702549  0.43773332    -0.22930
C1121       C  0.87667124  0.96189970  0.40476417     0.19960
F1122       F  0.90648906  0.94594195  0.39140919    -0.12890
F1123       F  0.84381576  0.94614947  0.35444687    -0.15250
F1124       F  0.84801729  0.51072379  0.48187623    -0.15250
F1125       F  0.78863285  0.51864959  0.44307293    -0.12890
C1126       C  0.61622167  0.97186992  0.40392328     0.25120
C1127       C  0.61591308  0.99039978  0.43539458    -0.22990
C1128       C  0.64691997  0.51004495  0.44663870     0.20030
C1129       C  0.67833314  0.51052669  0.42707019     0.25060
C1130       C  0.67939529  0.99093738  0.39592606    -0.22930
C1131       C  0.64774036  0.97221527  0.38418365     0.19960
F1132       F  0.64775676  0.95284995  0.35443417    -0.12890
F1133       F  0.58625721  0.95287973  0.39268824    -0.15250
F1134       F  0.70782486  0.53002009  0.43875839    -0.15250
F1135       F  0.64722959  0.52748823  0.47735522    -0.12890
C1136       C  0.85501281  0.54404764  0.06042197     0.25120
C1137       C  0.88139818  0.01664388  0.06632919    -0.22990
C1138       C  0.87525217  0.98970205  0.09235970     0.20030
C1139       C  0.84316995  0.98943041  0.11105352     0.25060
C1140       C  0.81650981  0.51617407  0.10452022    -0.22930
C1141       C  0.82292961  0.54379526  0.07932946     0.19960
F1142       F  0.79806702  0.57062010  0.07299915    -0.12890
F1143       F  0.85996973  0.57089556  0.03608651    -0.15250
F1144       F  0.83740356  0.96168291  0.13442205    -0.15250
F1145       F  0.89942424  0.96221890  0.09880038    -0.12890
C1146       C  0.65397770  0.98666639  0.10628577     0.25120
C1147       C  0.68124724  0.51465158  0.10300395    -0.22990
C1148       C  0.67609542  0.54453049  0.08014913     0.20030
C1149       C  0.64476600  0.54613006  0.06031857     0.25060
C1150       C  0.61777399  0.51753669  0.06255507    -0.22930
C1151       C  0.62256291  0.98794802  0.08608803     0.19960
F1152       F  0.59710289  0.96009881  0.08942179    -0.12890
F1153       F  0.65834450  0.95738567  0.12816046    -0.15250
F1154       F  0.64157468  0.57535876  0.03817263    -0.15250
F1155       F  0.70157849  0.57240375  0.07699086    -0.12890
O1156       O  0.56306626  0.51350675  0.96304300    -0.78610
O1157       O  0.91365520  0.96415755  0.98674057    -0.78640
O1158       O  0.51145592  0.94946764  0.95134513    -0.78640
O1159       O  0.99043822  0.55419301  0.94657232    -0.78590
O1160       O  0.97184723  0.91800149  0.98336188    -0.78710
O1161       O  0.52922924  0.57807699  0.98214861    -0.78630
O1162       O  0.93580512  0.50266524  0.94777426    -0.78610
O1163       O  0.58081331  0.95587623  0.97509620    -0.78650
C1164       C  0.58516268  0.98619205  0.95856259     1.11080
C1165       C  0.91165722  0.97963023  0.95751937     1.10960
C1166       C  0.99078693  0.92113442  0.95625654     1.11100
C1167       C  0.01197607  0.58052231  0.95446252     1.10980
O1168       O  0.51123838  0.54932761  0.54730584    -0.78610
O1169       O  0.99411435  0.94459087  0.55193021    -0.78690
O1170       O  0.56480183  0.98911339  0.53495596    -0.78630
O1171       O  0.91371788  0.52916263  0.51439981    -0.78610
O1172       O  0.93839084  0.99181417  0.55210822    -0.78660
O1173       O  0.57987537  0.54763691  0.52213878    -0.78620
O1174       O  0.97059996  0.57867489  0.51574812    -0.78580
O1175       O  0.53145213  0.92174213  0.51609400    -0.78650
Co1176     Co  0.53464431  0.52890420  0.00678130     1.51530
Co1177     Co  0.95671722  0.95691243  0.51810473     1.51690
Co1178     Co  0.53541778  0.97147091  0.99147911     1.51570
Co1179     Co  0.95498526  0.53885266  0.48142456     1.51470
O1180       O  0.48876862  0.49880048  0.99923751    -1.40550
C1181       C  0.48994512  0.57640877  0.54275542     1.11000
C1182       C  0.51507283  0.91873822  0.54412301     1.11090
C1183       C  0.58621748  0.51813972  0.53897767     1.11030
C1184       C  0.91332874  0.01349617  0.54363706     1.11010
C1185       C  0.50119320  0.71129446  0.62289744     0.04650
C1186       C  0.50498324  0.74505292  0.60450979    -0.11500
C1187       C  0.50968275  0.77945364  0.62162917     0.02150
C1188       C  0.51057774  0.77957866  0.65741458    -0.10020
C1189       C  0.50687015  0.74595474  0.67614222     0.04650
C1190       C  0.50228307  0.71177265  0.65857604    -0.09440
H1191       H  0.50384809  0.74448393  0.57694354     0.10240
H1192       H  0.51392922  0.80606975  0.67076459     0.07770
H1193       H  0.50017814  0.68545865  0.67254796     0.07620
C1194       C  0.51167952  0.71910460  0.87797872     0.04650
C1195       C  0.50829791  0.75346251  0.89494175    -0.11500
C1196       C  0.50429882  0.78688758  0.87630427     0.02150
C1197       C  0.50441050  0.78596687  0.84059114    -0.10020
C1198       C  0.50785547  0.75158394  0.82345880     0.04650
C1199       C  0.51123686  0.71821627  0.84232155    -0.09440
H1200       H  0.50803931  0.75409698  0.92253053     0.10240
H1201       H  0.50145963  0.81183976  0.82620861     0.07770
H1202       H  0.51349280  0.69152152  0.82926583     0.07620
C1203       C  0.71559534  0.51259877  0.62249520     0.04650
C1204       C  0.71545475  0.51013441  0.65816985    -0.11500
C1205       C  0.74817041  0.50965795  0.67664892     0.02150
C1206       C  0.78113982  0.51179196  0.65892150    -0.10020
C1207       C  0.78166367  0.51441198  0.62321049     0.04650
C1208       C  0.74877101  0.51453165  0.60522129    -0.09440
H1209       H  0.68986393  0.50953486  0.67156283     0.10240
H1210       H  0.80647880  0.51129185  0.67293122     0.07770
H1211       H  0.74894564  0.51573500  0.57764435     0.07620
C1212       C  0.71384042  0.98934009  0.87664489     0.04650
C1213       C  0.74619170  0.98158461  0.89388880    -0.11500
C1214       C  0.77986416  0.98462948  0.87746784     0.02150
C1215       C  0.78038340  0.99202604  0.84218258    -0.10020
C1216       C  0.74786392  0.99660863  0.82391037     0.04650
C1217       C  0.71485757  0.99643177  0.84152171    -0.09440
H1218       H  0.74505424  0.97369867  0.92052324     0.10240
H1219       H  0.80590069  0.99419687  0.82880208     0.07770
H1220       H  0.69003528  0.00224408  0.82782249     0.07620
C1221       C  0.72600075  0.97642027  0.76629225     0.25120
C1222       C  0.74795797  0.00055220  0.78627730    -0.22990
C1223       C  0.76985482  0.52795058  0.77004958     0.20030
C1224       C  0.76974300  0.53115871  0.73446866     0.25060
C1225       C  0.74793319  0.50680818  0.71443875    -0.22930
C1226       C  0.72606741  0.97941418  0.73078147     0.19960
F1227       F  0.70552437  0.95469722  0.71233197    -0.12890
F1228       F  0.70517117  0.94911502  0.78117520    -0.15250
F1229       F  0.79030708  0.55870616  0.71964386    -0.15250
F1230       F  0.79066756  0.55224430  0.78867997    -0.12890
C1231       C  0.53387668  0.77029047  0.76708535     0.25120
C1232       C  0.50755033  0.75026358  0.78584718    -0.22990
C1233       C  0.98130255  0.72837677  0.76855207     0.20030
C1234       C  0.98108261  0.72688529  0.73295211     0.25060
C1235       C  0.50751849  0.74682769  0.71399877    -0.22930
C1236       C  0.53409900  0.76833641  0.73150938     0.19960
F1237       F  0.56085842  0.78679150  0.71423787    -0.12890
F1238       F  0.55996742  0.79098114  0.78331078    -0.15250
F1239       F  0.95433280  0.70684136  0.71702301    -0.15250
F1240       F  0.95530207  0.70916120  0.78618485    -0.12890
C1241       C  0.54513502  0.63687843  0.93023501     0.25120
C1242       C  0.51301398  0.61535251  0.93390887    -0.22990
C1243       C  0.98071205  0.62845712  0.91926346     0.20030
C1244       C  0.98053689  0.66235444  0.90124746     0.25060
C1245       C  0.51256056  0.68364676  0.89739062    -0.22930
C1246       C  0.54492621  0.67081136  0.91186424     0.19960
F1247       F  0.57621528  0.69103139  0.90799775    -0.12890
F1248       F  0.57667771  0.62476111  0.94392489    -0.15250
F1249       F  0.94891148  0.67485089  0.88800357    -0.15250
F1250       F  0.94891050  0.60921283  0.92357461    -0.12890
C1251       C  0.96246823  0.86946855  0.92103879     0.25120
C1252       C  0.49347896  0.88875799  0.93311717    -0.22990
C1253       C  0.52792959  0.87484469  0.92547341     0.20030
C1254       C  0.53131460  0.84194979  0.90652954     0.25060
C1255       C  0.50040954  0.82277412  0.89441953    -0.22930
C1256       C  0.96594896  0.83689624  0.90133762     0.19960
F1257       F  0.93577077  0.81854057  0.88976724    -0.12890
F1258       F  0.92897198  0.88198962  0.92853258    -0.15250
F1259       F  0.56475759  0.82817101  0.90074979    -0.15250
F1260       F  0.55833334  0.89180407  0.93812940    -0.12890
C1261       C  0.96082762  0.62562384  0.57860248     0.25120
C1262       C  0.49215355  0.60865815  0.56620217    -0.22990
C1263       C  0.52630108  0.62495206  0.57369154     0.20030
C1264       C  0.52905948  0.65816693  0.59247066     0.25060
C1265       C  0.49783914  0.67528205  0.60458769    -0.22930
C1266       C  0.96370292  0.65859095  0.59808067     0.19960
F1267       F  0.93325279  0.67473951  0.60991792    -0.12890
F1268       F  0.92762423  0.61030368  0.57182210    -0.15250
F1269       F  0.56220409  0.67419861  0.59819701    -0.15260
F1270       F  0.55696519  0.60989185  0.56117000    -0.12890
C1271       C  0.53639189  0.81973941  0.57468902     0.25120
C1272       C  0.51255380  0.81547951  0.60238992    -0.22990
C1273       C  0.99114513  0.84598733  0.61171376     0.20030
C1274       C  0.99329036  0.87991818  0.59377184     0.25060
C1275       C  0.51651701  0.88413419  0.56548154    -0.22930
C1276       C  0.53828899  0.85366649  0.55633923     0.19960
F1277       F  0.56105115  0.85636820  0.52934383    -0.12890
F1278       F  0.55808525  0.79112315  0.56549373    -0.15250
F1279       F  0.97148589  0.90818409  0.60363632    -0.15250
F1280       F  0.96687048  0.84253232  0.63747875    -0.12890
C1281       C  0.84468833  0.96322312  0.88532168     0.25120
C1282       C  0.81396545  0.98166600  0.89791209    -0.22990
C1283       C  0.81605953  0.49789081  0.93067231     0.20030
C1284       C  0.84716917  0.49461422  0.95057842     0.25060
C1285       C  0.87781168  0.97702546  0.93773334    -0.22930
C1286       C  0.87667126  0.96189969  0.90476418     0.19960
F1287       F  0.90648909  0.94594197  0.89140919    -0.12890
F1288       F  0.84381579  0.94614949  0.85444687    -0.15250
F1289       F  0.84801729  0.51072380  0.98187623    -0.15250
F1290       F  0.78863285  0.51864960  0.94307293    -0.12890
C1291       C  0.61622168  0.97186993  0.90392328     0.25120
C1292       C  0.61591309  0.99039978  0.93539458    -0.22990
C1293       C  0.64691997  0.51004497  0.94663869     0.20030
C1294       C  0.67833314  0.51052671  0.92707018     0.25060
C1295       C  0.67939530  0.99093736  0.89592608    -0.22930
C1296       C  0.64774037  0.97221527  0.88418365     0.19960
F1297       F  0.64775677  0.95284995  0.85443418    -0.12890
F1298       F  0.58625721  0.95287975  0.89268823    -0.15250
F1299       F  0.70782486  0.53002012  0.93875838    -0.15250
F1300       F  0.64722958  0.52748827  0.97735521    -0.12890
C1301       C  0.85501281  0.54404763  0.56042197     0.25120
C1302       C  0.88139816  0.01664385  0.56632918    -0.22990
C1303       C  0.87525215  0.98970200  0.59235968     0.20030
C1304       C  0.84316993  0.98943035  0.61105351     0.25060
C1305       C  0.81650980  0.51617405  0.60452022    -0.22930
C1306       C  0.82292961  0.54379525  0.57932946     0.19960
F1307       F  0.79806702  0.57062009  0.57299916    -0.12890
F1308       F  0.85996973  0.57089554  0.53608652    -0.15250
F1309       F  0.83740354  0.96168284  0.63442203    -0.15250
F1310       F  0.89942421  0.96221883  0.59880034    -0.12890
C1311       C  0.65397768  0.98666637  0.60628580     0.25120
C1312       C  0.68124724  0.51465157  0.60300396    -0.22990
C1313       C  0.67609541  0.54453047  0.58014913     0.20030
C1314       C  0.64476599  0.54613004  0.56031857     0.25060
C1315       C  0.61777398  0.51753668  0.56255507    -0.22930
C1316       C  0.62256290  0.98794801  0.58608805     0.19960
F1317       F  0.59710286  0.96009880  0.58942182    -0.12890
F1318       F  0.65834447  0.95738566  0.62816050    -0.15250
F1319       F  0.64157468  0.57535873  0.53817262    -0.15250
F1320       F  0.70157848  0.57240373  0.57699085    -0.12890
loop_ 
_geom_bond_atom_site_label_1 
_geom_bond_atom_site_label_2 
_geom_bond_distance 
_geom_bond_site_symmetry_2 
_ccdc_geom_bond_type 
O1          Co21   2.097       .  S
O1          C339   1.293   1_545  A
O2         Co187   2.026       .  S
O2           C10   1.272       .  A
O3          Co23   1.961       .  S
O3          C671   1.266   1_455  A
O4         Co189   1.966       .  S
O4           C12   1.255       .  A
O5         Co187   2.033       .  S
O5           C11   1.279       .  A
O6          Co21   2.006       .  S
O6          C672   1.261       .  A
O7         Co189   1.966       .  S
O7          C340   1.258   1_545  A
O8          Co23   1.893       .  S
O8            C9   1.263       .  A
C9          O331   1.293       .  A
C9          C137   1.463       .  S
C10         O337   1.258       .  A
C10         C130   1.470       .  S
C11         O663   1.266       .  A
C11         C757   1.473       .  S
C12         O666   1.261       .  A
C12         C747   1.474       .  S
O13        Co186   1.962       .  S
O13          C26   1.266   1_455  A
O14         Co22   1.966       .  S
O14         C687   1.253       .  A
O15        Co188   2.108   1_554  S
O15         C358   1.297       .  A
O16         Co24   2.028   1_554  S
O16         C359   1.273       .  A
O17         Co22   1.957       .  S
O17          C29   1.259       .  A
O18        Co186   1.883       .  S
O18          C28   1.262       .  A
O19         Co24   2.030   1_554  S
O19         C686   1.279       .  A
O20        Co188   2.013   1_554  S
O20          C27   1.261       .  A
Co21        O178   1.962       .  S
Co21        O183   1.883       .  S
Co21         O25   2.007   1_445  S
Co22        O167   2.026   1_554  S
Co22        O170   2.033   1_554  S
Co22       O1180   2.023   1_554  S
Co23        O180   2.108       .  S
Co23        O185   2.013       .  S
Co23        O355   2.019   1_455  S
Co24        O169   1.966       .  S
Co24        O172   1.966       .  S
Co24        O850   2.031   1_545  S
O25       Co1177   2.023       .  S
O25        Co353   2.019   1_655  S
O25        Co849   2.031   1_565  S
C26         O679   1.279       .  A
C26         C107   1.473       .  S
C27         O674   1.253   1_455  A
C27         C120   1.487       .  S
C28         O345   1.297   1_545  A
C28         C160   1.485       .  S
C29         O346   1.273       .  A
C29         C147   1.488       .  S
C30         C110   1.472   1_455  S
C30          C31   1.402       .  A
C30          C35   1.401       .  A
C31          C32   1.404       .  A
C31          H36   1.083       .  S
C32         C117   1.486       .  S
C32          C33   1.405       .  A
C33          C34   1.405       .  A
C33          H37   1.083       .  S
C34          C80   1.486       .  S
C34          C35   1.405       .  A
C35          H38   1.084       .  S
C39          C90   1.470       .  S
C39          C40   1.400       .  A
C39          C44   1.400       .  A
C40          C41   1.402       .  A
C40          H45   1.083       .  S
C41         C100   1.472       .  S
C41          C42   1.402       .  A
C42          C43   1.405       .  A
C42          H46   1.084       .  S
C43          C77   1.477       .  S
C43          C44   1.402       .  A
C44          H47   1.084       .  S
C48         C157   1.481       .  S
C48          C49   1.403       .  A
C48          C53   1.404       .  A
C49          C50   1.407       .  A
C49          H54   1.084       .  S
C50          C70   1.486       .  S
C50          C51   1.406       .  A
C51          C52   1.404       .  A
C51          H55   1.084       .  S
C52         C150   1.485       .  S
C52          C53   1.402       .  A
C53          H56   1.083       .  S
C57         C140   1.486       .  S
C57          C58   1.402       .  A
C57          C62   1.401       .  A
C58          C59   1.406       .  A
C58          H63   1.082       .  S
C59         C127   1.495       .  S
C59          C60   1.409       .  A
C60          C61   1.408       .  A
C60          H64   1.082       .  S
C61          C67   1.483       .  S
C61          C62   1.404       .  A
C62          H65   1.084       .  S
C66          C67   1.407       .  A
C66          C71   1.397       .  A
C66          F73   1.358       .  S
C67         C398   1.406       .  A
C68          C69   1.401       .  A
C68         C397   1.406       .  A
C68          F75   1.358       .  S
C69          C70   1.409       .  A
C69          F74   1.358       .  S
C70         C401   1.407   1_545  A
C71         C400   1.407       .  A
C71          F72   1.358       .  S
C76          C77   1.403       .  A
C76          C81   1.398       .  A
C76          F83   1.358       .  S
C77         C738   1.405   1_455  A
C78          C79   1.398       .  A
C78         C737   1.405       .  A
C78          F85   1.358       .  S
C79         C740   1.409       .  A
C79          F84   1.358       .  S
C80          C81   1.410       .  A
C80         C739   1.409   1_455  A
C81          F82   1.358       .  S
C86          C87   1.406       .  A
C86          C91   1.402       .  A
C86          F93   1.358       .  S
C87         C672   1.474       .  S
C87         C748   1.409   1_455  A
C88          C89   1.394       .  A
C88         C747   1.409       .  A
C88          F95   1.358       .  S
C89         C750   1.400       .  A
C89          F94   1.358       .  S
C90          C91   1.405       .  A
C90         C749   1.400   1_455  A
C91          F92   1.357       .  S
C96         C101   1.402       .  A
C96         C757   1.404       .  A
C96         F103   1.357       .  S
C97         C671   1.473       .  S
C97          C98   1.408   1_655  A
C97         C756   1.404       .  A
C98          C99   1.395       .  A
C98         F105   1.357       .  S
C99         C100   1.400       .  A
C99         F104   1.358       .  S
C100        C761   1.405   1_455  A
C101        C760   1.405       .  A
C101        F102   1.357       .  S
C106        C111   1.403       .  A
C106        C767   1.405       .  A
C106        F113   1.357       .  S
C107        C108   1.407   1_655  A
C107        C766   1.405       .  A
C108        C109   1.395       .  A
C108        F115   1.357       .  S
C109        C110   1.400   1_455  A
C109        F114   1.358       .  S
C110        C771   1.405       .  A
C111        C770   1.405       .  A
C111        F112   1.357       .  S
C116        C117   1.408       .  A
C116        C121   1.402       .  A
C116        F123   1.358       .  S
C117        C778   1.405   1_455  A
C118        C119   1.395       .  A
C118        C777   1.405       .  A
C118        F125   1.358       .  S
C119        C780   1.412       .  A
C119        F124   1.358       .  S
C120        C121   1.410       .  A
C120        C779   1.412   1_455  A
C121        F122   1.358       .  S
C126        C127   1.414       .  A
C126        C131   1.405       .  A
C126        F133   1.357       .  S
C127        C458   1.412       .  A
C128        C129   1.393       .  A
C128        C457   1.412       .  A
C128        F135   1.358   1_565  S
C129        C460   1.401       .  A
C129        F134   1.357   1_565  S
C130        C131   1.403       .  A
C130        C459   1.401       .  A
C131        F132   1.357       .  S
C136        C137   1.402       .  A
C136        C141   1.401       .  A
C136        F143   1.357       .  S
C137        C468   1.400       .  A
C138        C139   1.394       .  A
C138        C467   1.400   1_545  A
C138        F145   1.357       .  S
C139        C470   1.410   1_545  A
C139        F144   1.358       .  S
C140        C141   1.410       .  A
C140        C469   1.410       .  A
C141        F142   1.357       .  S
C146        C151   1.401       .  A
C146        C477   1.409       .  A
C146        F153   1.358       .  S
C147        C148   1.413       .  A
C147        C476   1.409       .  A
C148        C149   1.397       .  A
C148        F155   1.358       .  S
C149        C480   1.404       .  A
C149        F154   1.358       .  S
C150        C151   1.408       .  A
C150        C479   1.404   1_545  A
C151        F152   1.358       .  S
C156        C161   1.403       .  A
C156        C487   1.407       .  A
C156        F163   1.358       .  S
C157        C158   1.402       .  A
C157        C486   1.407   1_545  A
C158        C159   1.393       .  A
C158        F165   1.358       .  S
C159        C160   1.412       .  A
C159        F164   1.358       .  S
C160        C491   1.410   1_545  A
C161        C490   1.410       .  A
C161        F162   1.358       .  S
O166       Co186   2.097   1_556  S
O166        C504   1.293   1_545  A
O167        C175   1.272       .  A
O168       Co188   1.961       .  S
O168        C836   1.266   1_455  A
O169        C177   1.255       .  A
O170        C176   1.279       .  A
O171       Co186   2.006   1_556  S
O171        C837   1.261       .  A
O172        C505   1.258   1_545  A
O173       Co188   1.893       .  S
O173        C174   1.263       .  A
C174        O496   1.293       .  A
C174        C302   1.463       .  S
C175        O502   1.258       .  A
C175        C295   1.470       .  S
C176        O828   1.266       .  A
C176        C922   1.473       .  S
C177        O831   1.261       .  A
C177        C912   1.474       .  S
O178        C191   1.266   1_455  A
O179       Co187   1.966       .  S
O179        C852   1.253       .  A
O180        C523   1.297       .  A
O181       Co189   2.028       .  S
O181        C524   1.273       .  A
O182       Co187   1.957       .  S
O182        C194   1.259       .  A
O183        C193   1.262       .  A
O184       Co189   2.030       .  S
O184        C851   1.279       .  A
O185        C192   1.261       .  A
Co186       O190   2.007   1_444  S
Co187      O1015   2.023       .  S
Co188       O520   2.019   1_455  S
Co189       O685   2.031   1_545  S
O190      Co1012   2.023   1_556  S
O190       Co518   2.019   1_655  S
O190       Co684   2.031   1_565  S
C191        O844   1.279       .  A
C191        C272   1.473       .  S
C192        O839   1.253   1_455  A
C192        C285   1.487       .  S
C193        O510   1.297   1_545  A
C193        C325   1.485       .  S
C194        O511   1.273       .  A
C194        C312   1.488       .  S
C195        C275   1.472   1_455  S
C195        C196   1.402       .  A
C195        C200   1.401       .  A
C196        C197   1.404       .  A
C196        H201   1.083       .  S
C197        C282   1.486       .  S
C197        C198   1.405       .  A
C198        C199   1.405       .  A
C198        H202   1.083       .  S
C199        C245   1.486       .  S
C199        C200   1.405       .  A
C200        H203   1.084       .  S
C204        C255   1.470       .  S
C204        C205   1.400       .  A
C204        C209   1.400       .  A
C205        C206   1.402       .  A
C205        H210   1.083       .  S
C206        C265   1.472       .  S
C206        C207   1.402       .  A
C207        C208   1.405       .  A
C207        H211   1.084       .  S
C208        C242   1.477       .  S
C208        C209   1.402       .  A
C209        H212   1.084       .  S
C213        C322   1.481       .  S
C213        C214   1.403       .  A
C213        C218   1.404       .  A
C214        C215   1.407       .  A
C214        H219   1.084       .  S
C215        C235   1.486       .  S
C215        C216   1.406       .  A
C216        C217   1.404       .  A
C216        H220   1.084       .  S
C217        C315   1.485       .  S
C217        C218   1.402       .  A
C218        H221   1.083       .  S
C222        C305   1.486       .  S
C222        C223   1.402       .  A
C222        C227   1.401       .  A
C223        C224   1.406       .  A
C223        H228   1.082       .  S
C224        C292   1.495       .  S
C224        C225   1.409       .  A
C225        C226   1.408       .  A
C225        H229   1.082       .  S
C226        C232   1.483       .  S
C226        C227   1.404       .  A
C227        H230   1.084       .  S
C231        C232   1.407       .  A
C231        C236   1.397       .  A
C231        F238   1.358       .  S
C232        C563   1.406       .  A
C233        C562   1.406       .  A
C233        C234   1.401       .  A
C233        F240   1.358       .  S
C234        C235   1.409       .  A
C234        F239   1.358       .  S
C235        C566   1.407   1_545  A
C236        C565   1.407       .  A
C236        F237   1.358       .  S
C241        C242   1.403       .  A
C241        C246   1.398       .  A
C241        F248   1.358       .  S
C242        C903   1.405   1_455  A
C243        C902   1.405       .  A
C243        C244   1.398       .  A
C243        F250   1.358       .  S
C244        C905   1.409       .  A
C244        F249   1.358       .  S
C245        C904   1.409   1_455  A
C245        C246   1.410       .  A
C246        F247   1.358       .  S
C251        C252   1.406       .  A
C251        C256   1.402       .  A
C251        F258   1.358       .  S
C252        C837   1.474       .  S
C252        C913   1.409   1_455  A
C253        C912   1.409       .  A
C253        C254   1.394       .  A
C253        F260   1.358       .  S
C254        C915   1.400       .  A
C254        F259   1.358       .  S
C255        C914   1.400   1_455  A
C255        C256   1.405       .  A
C256        F257   1.357       .  S
C261        C922   1.404       .  A
C261        C266   1.402       .  A
C261        F268   1.357       .  S
C262        C836   1.473       .  S
C262        C921   1.404       .  A
C262        C263   1.408   1_655  A
C263        C264   1.395       .  A
C263        F270   1.357       .  S
C264        C265   1.400       .  A
C264        F269   1.358       .  S
C265        C926   1.405   1_455  A
C266        C925   1.405       .  A
C266        F267   1.357       .  S
C271        C932   1.405       .  A
C271        C276   1.403       .  A
C271        F278   1.357       .  S
C272        C931   1.405       .  A
C272        C273   1.407   1_655  A
C273        C274   1.395       .  A
C273        F280   1.357       .  S
C274        C275   1.400   1_455  A
C274        F279   1.358       .  S
C275        C936   1.405       .  A
C276        C935   1.405       .  A
C276        F277   1.357       .  S
C281        C282   1.408       .  A
C281        C286   1.402       .  A
C281        F288   1.358       .  S
C282        C943   1.405   1_455  A
C283        C942   1.405       .  A
C283        C284   1.395       .  A
C283        F290   1.358       .  S
C284        C945   1.412       .  A
C284        F289   1.358       .  S
C285        C944   1.412   1_455  A
C285        C286   1.410       .  A
C286        F287   1.358       .  S
C291        C292   1.414       .  A
C291        C296   1.405       .  A
C291        F298   1.357       .  S
C292        C623   1.412       .  A
C293        C622   1.412       .  A
C293        C294   1.393       .  A
C293        F300   1.358   1_565  S
C294        C625   1.401       .  A
C294        F299   1.357   1_565  S
C295        C624   1.401       .  A
C295        C296   1.403       .  A
C296        F297   1.357       .  S
C301        C302   1.402       .  A
C301        C306   1.401       .  A
C301        F308   1.357       .  S
C302        C633   1.400       .  A
C303        C632   1.400   1_545  A
C303        C304   1.394       .  A
C303        F310   1.357       .  S
C304        C635   1.410   1_545  A
C304        F309   1.358       .  S
C305        C634   1.410       .  A
C305        C306   1.410       .  A
C306        F307   1.357       .  S
C311        C642   1.409       .  A
C311        C316   1.401       .  A
C311        F318   1.358       .  S
C312        C641   1.409       .  A
C312        C313   1.413       .  A
C313        C314   1.397       .  A
C313        F320   1.358       .  S
C314        C645   1.404       .  A
C314        F319   1.358       .  S
C315        C644   1.404   1_545  A
C315        C316   1.408       .  A
C316        F317   1.358       .  S
C321        C652   1.407       .  A
C321        C326   1.403       .  A
C321        F328   1.358       .  S
C322        C651   1.407   1_545  A
C322        C323   1.402       .  A
C323        C324   1.393       .  A
C323        F330   1.358       .  S
C324        C325   1.412       .  A
C324        F329   1.358       .  S
C325        C656   1.410   1_545  A
C326        C655   1.410       .  A
C326        F327   1.358       .  S
O331       Co351   2.097       .  S
O332       Co517   2.026       .  S
O332        C340   1.272       .  A
O333       Co353   1.961       .  S
O333       C1001   1.266   1_455  A
O334       Co519   1.966       .  S
O334        C342   1.255       .  A
O335       Co517   2.033       .  S
O335        C341   1.279       .  A
O336       Co351   2.006       .  S
O336       C1002   1.261       .  A
O337       Co519   1.966       .  S
O338       Co353   1.893       .  S
O338        C339   1.263       .  A
C339        C467   1.463       .  S
C340        C460   1.470       .  S
C341        O993   1.266       .  A
C341       C1087   1.473       .  S
C342        O996   1.261       .  A
C342       C1077   1.474       .  S
O343       Co516   1.962       .  S
O343        C356   1.266   1_455  A
O344       Co352   1.966       .  S
O344       C1017   1.253       .  A
O345       Co518   2.108   1_554  S
O346       Co354   2.028   1_554  S
O347       Co352   1.957       .  S
O347        C359   1.259   1_565  A
O348       Co516   1.883       .  S
O348        C358   1.262       .  A
O349       Co354   2.030   1_554  S
O349       C1016   1.279       .  A
O350       Co518   2.013   1_554  S
O350        C357   1.261       .  A
Co351       O508   1.962       .  S
Co351       O513   1.883       .  S
Co351       O355   2.007   1_455  S
Co352       O497   2.026   1_554  S
Co352       O500   2.033   1_554  S
Co352       O850   2.023   1_554  S
Co353       O510   2.108       .  S
Co353       O515   2.013       .  S
Co354       O499   1.966       .  S
Co354       O502   1.966       .  S
Co354      O1180   2.031       .  S
O355       Co847   2.023       .  S
O355      Co1179   2.031       .  S
C356       O1009   1.279       .  A
C356        C437   1.473       .  S
C357       O1004   1.253   1_455  A
C357        C450   1.487       .  S
C358        C490   1.485       .  S
C359        C477   1.488       .  S
C360        C440   1.472   1_455  S
C360        C361   1.402       .  A
C360        C365   1.401       .  A
C361        C362   1.404       .  A
C361        H366   1.083       .  S
C362        C447   1.486       .  S
C362        C363   1.405       .  A
C363        C364   1.405       .  A
C363        H367   1.083       .  S
C364        C410   1.486       .  S
C364        C365   1.405       .  A
C365        H368   1.084       .  S
C369        C420   1.470       .  S
C369        C370   1.400       .  A
C369        C374   1.400       .  A
C370        C371   1.402       .  A
C370        H375   1.083       .  S
C371        C430   1.472       .  S
C371        C372   1.402       .  A
C372        C373   1.405       .  A
C372        H376   1.084       .  S
C373        C407   1.477       .  S
C373        C374   1.402       .  A
C374        H377   1.084       .  S
C378        C487   1.481       .  S
C378        C379   1.403       .  A
C378        C383   1.404       .  A
C379        C380   1.407       .  A
C379        H384   1.084       .  S
C380        C400   1.486       .  S
C380        C381   1.406       .  A
C381        C382   1.404       .  A
C381        H385   1.084       .  S
C382        C480   1.485       .  S
C382        C383   1.402       .  A
C383        H386   1.083       .  S
C387        C470   1.486       .  S
C387        C388   1.402       .  A
C387        C392   1.401       .  A
C388        C389   1.406       .  A
C388        H393   1.082       .  S
C389        C457   1.495       .  S
C389        C390   1.409       .  A
C390        C391   1.408       .  A
C390        H394   1.082       .  S
C391        C397   1.483   1_565  S
C391        C392   1.404       .  A
C392        H395   1.084   1_565  S
C396        C397   1.407   1_565  A
C396        C401   1.397       .  A
C396        F403   1.358       .  S
C398        C399   1.401       .  A
C398        F405   1.358       .  S
C399        C400   1.409       .  A
C399        F404   1.358       .  S
C401        F402   1.358       .  S
C406        C407   1.403       .  A
C406        C411   1.398       .  A
C406        F413   1.358       .  S
C407       C1068   1.405   1_455  A
C408       C1067   1.405       .  A
C408        C409   1.398       .  A
C408        F415   1.358       .  S
C409       C1070   1.409       .  A
C409        F414   1.358       .  S
C410       C1069   1.409   1_455  A
C410        C411   1.410       .  A
C411        F412   1.358       .  S
C416        C417   1.406       .  A
C416        C421   1.402       .  A
C416        F423   1.358       .  S
C417       C1002   1.474       .  S
C417       C1078   1.409   1_455  A
C418       C1077   1.409       .  A
C418        C419   1.394       .  A
C418        F425   1.358       .  S
C419       C1080   1.400       .  A
C419        F424   1.358       .  S
C420       C1079   1.400   1_455  A
C420        C421   1.405       .  A
C421        F422   1.357       .  S
C426       C1087   1.404       .  A
C426        C431   1.402       .  A
C426        F433   1.357       .  S
C427       C1001   1.473       .  S
C427       C1086   1.404       .  A
C427        C428   1.408   1_655  A
C428        C429   1.395       .  A
C428        F435   1.357       .  S
C429        C430   1.400       .  A
C429        F434   1.358       .  S
C430       C1091   1.405   1_455  A
C431       C1090   1.405       .  A
C431        F432   1.357       .  S
C436       C1097   1.405       .  A
C436        C441   1.403       .  A
C436        F443   1.357       .  S
C437       C1096   1.405       .  A
C437        C438   1.407   1_655  A
C438        C439   1.395       .  A
C438        F445   1.357       .  S
C439        C440   1.400   1_455  A
C439        F444   1.358       .  S
C440       C1101   1.405       .  A
C441       C1100   1.405       .  A
C441        F442   1.357       .  S
C446        C447   1.408       .  A
C446        C451   1.402       .  A
C446        F453   1.358       .  S
C447       C1108   1.405   1_455  A
C448       C1107   1.405       .  A
C448        C449   1.395       .  A
C448        F455   1.358       .  S
C449       C1110   1.412       .  A
C449        F454   1.358       .  S
C450       C1109   1.412   1_455  A
C450        C451   1.410       .  A
C451        F452   1.358       .  S
C456        C457   1.414       .  A
C456        C461   1.405       .  A
C456        F463   1.357       .  S
C458        C459   1.393       .  A
C458        F465   1.358       .  S
C459        F464   1.357       .  S
C460        C461   1.403       .  A
C461        F462   1.357       .  S
C466        C467   1.402       .  A
C466        C471   1.401       .  A
C466        F473   1.357       .  S
C468        C469   1.394       .  A
C468        F475   1.357       .  S
C469        F474   1.358       .  S
C470        C471   1.410       .  A
C471        F472   1.357       .  S
C476        C481   1.401       .  A
C476        F483   1.358       .  S
C477        C478   1.413   1_545  A
C478        C479   1.397       .  A
C478        F485   1.358       .  S
C479        F484   1.358       .  S
C480        C481   1.408       .  A
C481        F482   1.358       .  S
C486        C491   1.403       .  A
C486        F493   1.358       .  S
C487        C488   1.402       .  A
C488        C489   1.393       .  A
C488        F495   1.358       .  S
C489        C490   1.412       .  A
C489        F494   1.358       .  S
C491        F492   1.358       .  S
O496       Co516   2.097   1_556  S
O497        C505   1.272       .  A
O498       Co518   1.961       .  S
O498       C1166   1.266   1_455  A
O499        C507   1.255       .  A
O500        C506   1.279       .  A
O501       Co516   2.006   1_556  S
O501       C1167   1.261       .  A
O503       Co518   1.893       .  S
O503        C504   1.263       .  A
C504        C632   1.463       .  S
C505        C625   1.470       .  S
C506       O1158   1.266       .  A
C506       C1252   1.473       .  S
C507       O1161   1.261       .  A
C507       C1242   1.474       .  S
O508        C521   1.266   1_455  A
O509       Co517   1.966       .  S
O509       C1182   1.253       .  A
O511       Co519   2.028       .  S
O512       Co517   1.957       .  S
O512        C524   1.259   1_565  A
O513        C523   1.262       .  A
O514       Co519   2.030       .  S
O514       C1181   1.279       .  A
O515        C522   1.261       .  A
Co516       O520   2.007   1_454  S
Co517       O685   2.023       .  S
Co519      O1015   2.031       .  S
O520       Co682   2.023   1_556  S
O520      Co1014   2.031       .  S
C521       O1174   1.279       .  A
C521        C602   1.473       .  S
C522       O1169   1.253   1_455  A
C522        C615   1.487       .  S
C523        C655   1.485       .  S
C524        C642   1.488       .  S
C525        C605   1.472   1_455  S
C525        C526   1.402       .  A
C525        C530   1.401       .  A
C526        C527   1.404       .  A
C526        H531   1.083       .  S
C527        C612   1.486       .  S
C527        C528   1.405       .  A
C528        C529   1.405       .  A
C528        H532   1.083       .  S
C529        C575   1.486       .  S
C529        C530   1.405       .  A
C530        H533   1.084       .  S
C534        C585   1.470       .  S
C534        C535   1.400       .  A
C534        C539   1.400       .  A
C535        C536   1.402       .  A
C535        H540   1.083       .  S
C536        C595   1.472       .  S
C536        C537   1.402       .  A
C537        C538   1.405       .  A
C537        H541   1.084       .  S
C538        C572   1.477       .  S
C538        C539   1.402       .  A
C539        H542   1.084       .  S
C543        C652   1.481       .  S
C543        C544   1.403       .  A
C543        C548   1.404       .  A
C544        C545   1.407       .  A
C544        H549   1.084       .  S
C545        C565   1.486       .  S
C545        C546   1.406       .  A
C546        C547   1.404       .  A
C546        H550   1.084       .  S
C547        C645   1.485       .  S
C547        C548   1.402       .  A
C548        H551   1.083       .  S
C552        C635   1.486       .  S
C552        C553   1.402       .  A
C552        C557   1.401       .  A
C553        C554   1.406       .  A
C553        H558   1.082       .  S
C554        C622   1.495       .  S
C554        C555   1.409       .  A
C555        C556   1.408       .  A
C555        H559   1.082       .  S
C556        C562   1.483   1_565  S
C556        C557   1.404       .  A
C557        H560   1.084   1_565  S
C561        C562   1.407   1_565  A
C561        C566   1.397       .  A
C561        F568   1.358       .  S
C563        C564   1.401       .  A
C563        F570   1.358       .  S
C564        C565   1.409       .  A
C564        F569   1.358       .  S
C566        F567   1.358       .  S
C571        C572   1.403       .  A
C571        C576   1.398       .  A
C571        F578   1.358       .  S
C572       C1233   1.405   1_455  A
C573       C1232   1.405       .  A
C573        C574   1.398       .  A
C573        F580   1.358       .  S
C574       C1235   1.409       .  A
C574        F579   1.358       .  S
C575       C1234   1.409   1_455  A
C575        C576   1.410       .  A
C576        F577   1.358       .  S
C581        C582   1.406       .  A
C581        C586   1.402       .  A
C581        F588   1.358       .  S
C582       C1167   1.474       .  S
C582       C1243   1.409   1_455  A
C583       C1242   1.409       .  A
C583        C584   1.394       .  A
C583        F590   1.358       .  S
C584       C1245   1.400       .  A
C584        F589   1.358       .  S
C585       C1244   1.400   1_455  A
C585        C586   1.405       .  A
C586        F587   1.357       .  S
C591       C1252   1.404       .  A
C591        C596   1.402       .  A
C591        F598   1.357       .  S
C592       C1166   1.473       .  S
C592       C1251   1.404       .  A
C592        C593   1.408   1_655  A
C593        C594   1.395       .  A
C593        F600   1.357       .  S
C594        C595   1.400       .  A
C594        F599   1.358       .  S
C595       C1256   1.405   1_455  A
C596       C1255   1.405       .  A
C596        F597   1.357       .  S
C601       C1262   1.405       .  A
C601        C606   1.403       .  A
C601        F608   1.357       .  S
C602       C1261   1.405       .  A
C602        C603   1.407   1_655  A
C603        C604   1.395       .  A
C603        F610   1.357       .  S
C604        C605   1.400   1_455  A
C604        F609   1.358       .  S
C605       C1266   1.405       .  A
C606       C1265   1.405       .  A
C606        F607   1.357       .  S
C611        C612   1.408       .  A
C611        C616   1.402       .  A
C611        F618   1.358       .  S
C612       C1273   1.405   1_455  A
C613       C1272   1.405       .  A
C613        C614   1.395       .  A
C613        F620   1.358       .  S
C614       C1275   1.412       .  A
C614        F619   1.358       .  S
C615       C1274   1.412   1_455  A
C615        C616   1.410       .  A
C616        F617   1.358       .  S
C621        C622   1.414       .  A
C621        C626   1.405       .  A
C621        F628   1.357       .  S
C623        C624   1.393       .  A
C623        F630   1.358       .  S
C624        F629   1.357       .  S
C625        C626   1.403       .  A
C626        F627   1.357       .  S
C631        C632   1.402       .  A
C631        C636   1.401       .  A
C631        F638   1.357       .  S
C633        C634   1.394       .  A
C633        F640   1.357       .  S
C634        F639   1.358       .  S
C635        C636   1.410       .  A
C636        F637   1.357       .  S
C641        C646   1.401       .  A
C641        F648   1.358       .  S
C642        C643   1.413   1_545  A
C643        C644   1.397       .  A
C643        F650   1.358       .  S
C644        F649   1.358       .  S
C645        C646   1.408       .  A
C646        F647   1.358       .  S
C651        C656   1.403       .  A
C651        F658   1.358       .  S
C652        C653   1.402       .  A
C653        C654   1.393       .  A
C653        F660   1.358       .  S
C654        C655   1.412       .  A
C654        F659   1.358       .  S
C656        F657   1.358       .  S
O661       Co681   2.097       .  S
O661        C999   1.293   1_545  A
O662       Co847   2.026       .  S
O662        C670   1.272       .  A
O663       Co683   1.961       .  S
O664       Co849   1.966       .  S
O664        C672   1.255   1_655  A
O665       Co847   2.033       .  S
O665        C671   1.279       .  A
O666       Co681   2.006       .  S
O667       Co849   1.966       .  S
O667       C1000   1.258   1_545  A
O668       Co683   1.893       .  S
O668        C669   1.263       .  A
C669        O991   1.293       .  A
C669        C797   1.463       .  S
C670        O997   1.258       .  A
C670        C790   1.470       .  S
O673       Co846   1.962       .  S
O673        C686   1.266       .  A
O674       Co682   1.966       .  S
O675       Co848   2.108   1_554  S
O675       C1018   1.297       .  A
O676       Co684   2.028   1_554  S
O676       C1019   1.273       .  A
O677       Co682   1.957       .  S
O677        C689   1.259       .  A
O678       Co846   1.883       .  S
O678        C688   1.262       .  A
O679       Co684   2.030   1_554  S
O680       Co848   2.013   1_554  S
O680        C687   1.261       .  A
Co681       O838   1.962       .  S
Co681       O843   1.883       .  S
Co681       O685   2.007   1_545  S
Co682       O827   2.026   1_554  S
Co682       O830   2.033   1_554  S
Co683       O840   2.108       .  S
Co683       O845   2.013       .  S
Co683      O1015   2.019       .  S
Co684       O829   1.966       .  S
Co684       O832   1.966       .  S
O685      Co1013   2.019       .  S
C686        C767   1.473       .  S
C687        C780   1.487       .  S
C688       O1005   1.297   1_545  A
C688        C820   1.485       .  S
C689       O1006   1.273       .  A
C689        C807   1.488       .  S
C690        C770   1.472       .  S
C690        C691   1.402       .  A
C690        C695   1.401       .  A
C691        C692   1.404       .  A
C691        H696   1.083       .  S
C692        C777   1.486       .  S
C692        C693   1.405       .  A
C693        C694   1.405       .  A
C693        H697   1.083       .  S
C694        C740   1.486       .  S
C694        C695   1.405       .  A
C695        H698   1.084       .  S
C699        C750   1.470       .  S
C699        C700   1.400       .  A
C699        C704   1.400       .  A
C700        C701   1.402       .  A
C700        H705   1.083       .  S
C701        C760   1.472       .  S
C701        C702   1.402       .  A
C702        C703   1.405       .  A
C702        H706   1.084       .  S
C703        C737   1.477       .  S
C703        C704   1.402       .  A
C704        H707   1.084       .  S
C708        C817   1.481       .  S
C708        C709   1.403       .  A
C708        C713   1.404       .  A
C709        C710   1.407       .  A
C709        H714   1.084       .  S
C710        C730   1.486       .  S
C710        C711   1.406       .  A
C711        C712   1.404       .  A
C711        H715   1.084       .  S
C712        C810   1.485       .  S
C712        C713   1.402       .  A
C713        H716   1.083       .  S
C717        C800   1.486       .  S
C717        C718   1.402       .  A
C717        C722   1.401       .  A
C718        C719   1.406       .  A
C718        H723   1.082       .  S
C719        C787   1.495       .  S
C719        C720   1.409       .  A
C720        C721   1.408       .  A
C720        H724   1.082       .  S
C721        C727   1.483       .  S
C721        C722   1.404       .  A
C722        H725   1.084       .  S
C726        C727   1.407       .  A
C726        C731   1.397       .  A
C726        F733   1.358       .  S
C727       C1058   1.406       .  A
C728       C1057   1.406       .  A
C728        C729   1.401       .  A
C728        F735   1.358       .  S
C729        C730   1.409       .  A
C729        F734   1.358       .  S
C730       C1061   1.407   1_545  A
C731       C1060   1.407       .  A
C731        F732   1.358       .  S
C736        C737   1.403       .  A
C736        C741   1.398       .  A
C736        F743   1.358       .  S
C738        C739   1.398       .  A
C738        F745   1.358       .  S
C739        F744   1.358       .  S
C740        C741   1.410       .  A
C741        F742   1.358       .  S
C746        C747   1.406       .  A
C746        C751   1.402       .  A
C746        F753   1.358       .  S
C748        C749   1.394       .  A
C748        F755   1.358       .  S
C749        F754   1.358       .  S
C750        C751   1.405       .  A
C751        F752   1.357       .  S
C756        C761   1.402       .  A
C756        F763   1.357       .  S
C757        C758   1.408       .  A
C758        C759   1.395       .  A
C758        F765   1.357       .  S
C759        C760   1.400       .  A
C759        F764   1.358       .  S
C761        F762   1.357       .  S
C766        C771   1.403       .  A
C766        F773   1.357       .  S
C767        C768   1.407       .  A
C768        C769   1.395       .  A
C768        F775   1.357       .  S
C769        C770   1.400       .  A
C769        F774   1.358       .  S
C771        F772   1.357       .  S
C776        C777   1.408       .  A
C776        C781   1.402       .  A
C776        F783   1.358       .  S
C778        C779   1.395       .  A
C778        F785   1.358       .  S
C779        F784   1.358       .  S
C780        C781   1.410       .  A
C781        F782   1.358       .  S
C786        C787   1.414       .  A
C786        C791   1.405       .  A
C786        F793   1.357       .  S
C787       C1118   1.412       .  A
C788       C1117   1.412       .  A
C788        C789   1.393       .  A
C788        F795   1.358   1_565  S
C789       C1120   1.401       .  A
C789        F794   1.357   1_565  S
C790       C1119   1.401       .  A
C790        C791   1.403       .  A
C791        F792   1.357       .  S
C796        C797   1.402       .  A
C796        C801   1.401       .  A
C796        F803   1.357       .  S
C797       C1128   1.400       .  A
C798       C1127   1.400   1_545  A
C798        C799   1.394       .  A
C798        F805   1.357       .  S
C799       C1130   1.410   1_545  A
C799        F804   1.358       .  S
C800       C1129   1.410       .  A
C800        C801   1.410       .  A
C801        F802   1.357       .  S
C806       C1137   1.409       .  A
C806        C811   1.401       .  A
C806        F813   1.358       .  S
C807       C1136   1.409       .  A
C807        C808   1.413       .  A
C808        C809   1.397       .  A
C808        F815   1.358       .  S
C809       C1140   1.404       .  A
C809        F814   1.358       .  S
C810       C1139   1.404   1_545  A
C810        C811   1.408       .  A
C811        F812   1.358       .  S
C816       C1147   1.407       .  A
C816        C821   1.403       .  A
C816        F823   1.358       .  S
C817       C1146   1.407   1_545  A
C817        C818   1.402       .  A
C818        C819   1.393       .  A
C818        F825   1.358       .  S
C819        C820   1.412       .  A
C819        F824   1.358       .  S
C820       C1151   1.410   1_545  A
C821       C1150   1.410       .  A
C821        F822   1.358       .  S
O826       Co846   2.097   1_556  S
O826       C1164   1.293   1_545  A
O827        C835   1.272       .  A
O828       Co848   1.961       .  S
O829        C837   1.255   1_655  A
O830        C836   1.279       .  A
O831       Co846   2.006   1_556  S
O832       C1165   1.258   1_545  A
O833       Co848   1.893       .  S
O833        C834   1.263       .  A
C834       O1156   1.293       .  A
C834        C962   1.463       .  S
C835       O1162   1.258       .  A
C835        C955   1.470       .  S
O838        C851   1.266       .  A
O839       Co847   1.966       .  S
O840       C1183   1.297       .  A
O841       Co849   2.028       .  S
O841       C1184   1.273       .  A
O842       Co847   1.957       .  S
O842        C854   1.259       .  A
O843        C853   1.262       .  A
O844       Co849   2.030       .  S
O845        C852   1.261       .  A
Co846       O850   2.007   1_544  S
Co848      O1180   2.019       .  S
O850      Co1178   2.019       .  S
C851        C932   1.473       .  S
C852        C945   1.487       .  S
C853       O1170   1.297   1_545  A
C853        C985   1.485       .  S
C854       O1171   1.273       .  A
C854        C972   1.488       .  S
C855        C935   1.472       .  S
C855        C856   1.402       .  A
C855        C860   1.401       .  A
C856        C857   1.404       .  A
C856        H861   1.083       .  S
C857        C942   1.486       .  S
C857        C858   1.405       .  A
C858        C859   1.405       .  A
C858        H862   1.083       .  S
C859        C905   1.486       .  S
C859        C860   1.405       .  A
C860        H863   1.084       .  S
C864        C915   1.470       .  S
C864        C865   1.400       .  A
C864        C869   1.400       .  A
C865        C866   1.402       .  A
C865        H870   1.083       .  S
C866        C925   1.472       .  S
C866        C867   1.402       .  A
C867        C868   1.405       .  A
C867        H871   1.084       .  S
C868        C902   1.477       .  S
C868        C869   1.402       .  A
C869        H872   1.084       .  S
C873        C982   1.481       .  S
C873        C874   1.403       .  A
C873        C878   1.404       .  A
C874        C875   1.407       .  A
C874        H879   1.084       .  S
C875        C895   1.486       .  S
C875        C876   1.406       .  A
C876        C877   1.404       .  A
C876        H880   1.084       .  S
C877        C975   1.485       .  S
C877        C878   1.402       .  A
C878        H881   1.083       .  S
C882        C965   1.486       .  S
C882        C883   1.402       .  A
C882        C887   1.401       .  A
C883        C884   1.406       .  A
C883        H888   1.082       .  S
C884        C952   1.495       .  S
C884        C885   1.409       .  A
C885        C886   1.408       .  A
C885        H889   1.082       .  S
C886        C892   1.483       .  S
C886        C887   1.404       .  A
C887        H890   1.084       .  S
C891        C892   1.407       .  A
C891        C896   1.397       .  A
C891        F898   1.358       .  S
C892       C1223   1.406       .  A
C893       C1222   1.406       .  A
C893        C894   1.401       .  A
C893        F900   1.358       .  S
C894        C895   1.409       .  A
C894        F899   1.358       .  S
C895       C1226   1.407   1_545  A
C896       C1225   1.407       .  A
C896        F897   1.358       .  S
C901        C902   1.403       .  A
C901        C906   1.398       .  A
C901        F908   1.358       .  S
C903        C904   1.398       .  A
C903        F910   1.358       .  S
C904        F909   1.358       .  S
C905        C906   1.410       .  A
C906        F907   1.358       .  S
C911        C912   1.406       .  A
C911        C916   1.402       .  A
C911        F918   1.358       .  S
C913        C914   1.394       .  A
C913        F920   1.358       .  S
C914        F919   1.358       .  S
C915        C916   1.405       .  A
C916        F917   1.357       .  S
C921        C926   1.402       .  A
C921        F928   1.357       .  S
C922        C923   1.408       .  A
C923        C924   1.395       .  A
C923        F930   1.357       .  S
C924        C925   1.400       .  A
C924        F929   1.358       .  S
C926        F927   1.357       .  S
C931        C936   1.403       .  A
C931        F938   1.357       .  S
C932        C933   1.407       .  A
C933        C934   1.395       .  A
C933        F940   1.357       .  S
C934        C935   1.400       .  A
C934        F939   1.358       .  S
C936        F937   1.357       .  S
C941        C942   1.408       .  A
C941        C946   1.402       .  A
C941        F948   1.358       .  S
C943        C944   1.395       .  A
C943        F950   1.358       .  S
C944        F949   1.358       .  S
C945        C946   1.410       .  A
C946        F947   1.358       .  S
C951        C952   1.414       .  A
C951        C956   1.405       .  A
C951        F958   1.357       .  S
C952       C1283   1.412       .  A
C953       C1282   1.412       .  A
C953        C954   1.393       .  A
C953        F960   1.358   1_565  S
C954       C1285   1.401       .  A
C954        F959   1.357   1_565  S
C955       C1284   1.401       .  A
C955        C956   1.403       .  A
C956        F957   1.357       .  S
C961        C962   1.402       .  A
C961        C966   1.401       .  A
C961        F968   1.357       .  S
C962       C1293   1.400       .  A
C963       C1292   1.400   1_545  A
C963        C964   1.394       .  A
C963        F970   1.357       .  S
C964       C1295   1.410   1_545  A
C964        F969   1.358       .  S
C965       C1294   1.410       .  A
C965        C966   1.410       .  A
C966        F967   1.357       .  S
C971       C1302   1.409       .  A
C971        C976   1.401       .  A
C971        F978   1.358       .  S
C972       C1301   1.409       .  A
C972        C973   1.413       .  A
C973        C974   1.397       .  A
C973        F980   1.358       .  S
C974       C1305   1.404       .  A
C974        F979   1.358       .  S
C975       C1304   1.404   1_545  A
C975        C976   1.408       .  A
C976        F977   1.358       .  S
C981       C1312   1.407       .  A
C981        C986   1.403       .  A
C981        F988   1.358       .  S
C982       C1311   1.407   1_545  A
C982        C983   1.402       .  A
C983        C984   1.393       .  A
C983        F990   1.358       .  S
C984        C985   1.412       .  A
C984        F989   1.358       .  S
C985       C1316   1.410   1_545  A
C986       C1315   1.410       .  A
C986        F987   1.358       .  S
O991      Co1011   2.097       .  S
O992      Co1177   2.026       .  S
O992       C1000   1.272       .  A
O993      Co1013   1.961       .  S
O994      Co1179   1.966       .  S
O994       C1002   1.255   1_655  A
O995      Co1177   2.033       .  S
O995       C1001   1.279       .  A
O996      Co1011   2.006       .  S
O997      Co1179   1.966       .  S
O998      Co1013   1.893       .  S
O998        C999   1.263       .  A
C999       C1127   1.463       .  S
C1000      C1120   1.470       .  S
O1003     Co1176   1.962       .  S
O1003      C1016   1.266       .  A
O1004     Co1012   1.966       .  S
O1005     Co1178   2.108   1_554  S
O1006     Co1014   2.028   1_554  S
O1007     Co1012   1.957       .  S
O1007      C1019   1.259   1_565  A
O1008     Co1176   1.883       .  S
O1008      C1018   1.262       .  A
O1009     Co1014   2.030   1_554  S
O1010     Co1178   2.013   1_554  S
O1010      C1017   1.261       .  A
Co1011     O1168   1.962       .  S
Co1011     O1173   1.883       .  S
Co1011     O1015   2.007       .  S
Co1012     O1157   2.026   1_554  S
Co1012     O1160   2.033   1_554  S
Co1013     O1170   2.108       .  S
Co1013     O1175   2.013       .  S
Co1014     O1159   1.966       .  S
Co1014     O1162   1.966       .  S
C1016      C1097   1.473       .  S
C1017      C1110   1.487       .  S
C1018      C1150   1.485       .  S
C1019      C1137   1.488       .  S
C1020      C1100   1.472       .  S
C1020      C1021   1.402       .  A
C1020      C1025   1.401       .  A
C1021      C1022   1.404       .  A
C1021      H1026   1.083       .  S
C1022      C1107   1.486       .  S
C1022      C1023   1.405       .  A
C1023      C1024   1.405       .  A
C1023      H1027   1.083       .  S
C1024      C1070   1.486       .  S
C1024      C1025   1.405       .  A
C1025      H1028   1.084       .  S
C1029      C1080   1.470       .  S
C1029      C1030   1.400       .  A
C1029      C1034   1.400       .  A
C1030      C1031   1.402       .  A
C1030      H1035   1.083       .  S
C1031      C1090   1.472       .  S
C1031      C1032   1.402       .  A
C1032      C1033   1.405       .  A
C1032      H1036   1.084       .  S
C1033      C1067   1.477       .  S
C1033      C1034   1.402       .  A
C1034      H1037   1.084       .  S
C1038      C1147   1.481       .  S
C1038      C1039   1.403       .  A
C1038      C1043   1.404       .  A
C1039      C1040   1.407       .  A
C1039      H1044   1.084       .  S
C1040      C1060   1.486       .  S
C1040      C1041   1.406       .  A
C1041      C1042   1.404       .  A
C1041      H1045   1.084       .  S
C1042      C1140   1.485       .  S
C1042      C1043   1.402       .  A
C1043      H1046   1.083       .  S
C1047      C1130   1.486       .  S
C1047      C1048   1.402       .  A
C1047      C1052   1.401       .  A
C1048      C1049   1.406       .  A
C1048      H1053   1.082       .  S
C1049      C1117   1.495       .  S
C1049      C1050   1.409       .  A
C1050      C1051   1.408       .  A
C1050      H1054   1.082       .  S
C1051      C1057   1.483   1_565  S
C1051      C1052   1.404       .  A
C1052      H1055   1.084   1_565  S
C1056      C1057   1.407   1_565  A
C1056      C1061   1.397       .  A
C1056      F1063   1.358       .  S
C1058      C1059   1.401       .  A
C1058      F1065   1.358       .  S
C1059      C1060   1.409       .  A
C1059      F1064   1.358       .  S
C1061      F1062   1.358       .  S
C1066      C1067   1.403       .  A
C1066      C1071   1.398       .  A
C1066      F1073   1.358       .  S
C1068      C1069   1.398       .  A
C1068      F1075   1.358       .  S
C1069      F1074   1.358       .  S
C1070      C1071   1.410       .  A
C1071      F1072   1.358       .  S
C1076      C1077   1.406       .  A
C1076      C1081   1.402       .  A
C1076      F1083   1.358       .  S
C1078      C1079   1.394       .  A
C1078      F1085   1.358       .  S
C1079      F1084   1.358       .  S
C1080      C1081   1.405       .  A
C1081      F1082   1.357       .  S
C1086      C1091   1.402       .  A
C1086      F1093   1.357       .  S
C1087      C1088   1.408       .  A
C1088      C1089   1.395       .  A
C1088      F1095   1.357       .  S
C1089      C1090   1.400       .  A
C1089      F1094   1.358       .  S
C1091      F1092   1.357       .  S
C1096      C1101   1.403       .  A
C1096      F1103   1.357       .  S
C1097      C1098   1.407       .  A
C1098      C1099   1.395       .  A
C1098      F1105   1.357       .  S
C1099      C1100   1.400       .  A
C1099      F1104   1.358       .  S
C1101      F1102   1.357       .  S
C1106      C1107   1.408       .  A
C1106      C1111   1.402       .  A
C1106      F1113   1.358       .  S
C1108      C1109   1.395       .  A
C1108      F1115   1.358       .  S
C1109      F1114   1.358       .  S
C1110      C1111   1.410       .  A
C1111      F1112   1.358       .  S
C1116      C1117   1.414       .  A
C1116      C1121   1.405       .  A
C1116      F1123   1.357       .  S
C1118      C1119   1.393       .  A
C1118      F1125   1.358       .  S
C1119      F1124   1.357       .  S
C1120      C1121   1.403       .  A
C1121      F1122   1.357       .  S
C1126      C1127   1.402       .  A
C1126      C1131   1.401       .  A
C1126      F1133   1.357       .  S
C1128      C1129   1.394       .  A
C1128      F1135   1.357       .  S
C1129      F1134   1.358       .  S
C1130      C1131   1.410       .  A
C1131      F1132   1.357       .  S
C1136      C1141   1.401       .  A
C1136      F1143   1.358       .  S
C1137      C1138   1.413   1_545  A
C1138      C1139   1.397       .  A
C1138      F1145   1.358       .  S
C1139      F1144   1.358       .  S
C1140      C1141   1.408       .  A
C1141      F1142   1.358       .  S
C1146      C1151   1.403       .  A
C1146      F1153   1.358       .  S
C1147      C1148   1.402       .  A
C1148      C1149   1.393       .  A
C1148      F1155   1.358       .  S
C1149      C1150   1.412       .  A
C1149      F1154   1.358       .  S
C1151      F1152   1.358       .  S
O1156     Co1176   2.097   1_556  S
O1157      C1165   1.272       .  A
O1158     Co1178   1.961       .  S
O1159      C1167   1.255   1_655  A
O1160      C1166   1.279       .  A
O1161     Co1176   2.006   1_556  S
O1163     Co1178   1.893       .  S
O1163      C1164   1.263       .  A
C1164      C1292   1.463       .  S
C1165      C1285   1.470       .  S
O1168      C1181   1.266       .  A
O1169     Co1177   1.966       .  S
O1171     Co1179   2.028       .  S
O1172     Co1177   1.957       .  S
O1172      C1184   1.259   1_565  A
O1173      C1183   1.262       .  A
O1174     Co1179   2.030       .  S
O1175      C1182   1.261       .  A
Co1176     O1180   2.007   1_554  S
C1181      C1262   1.473       .  S
C1182      C1275   1.487       .  S
C1183      C1315   1.485       .  S
C1184      C1302   1.488       .  S
C1185      C1265   1.472       .  S
C1185      C1186   1.402       .  A
C1185      C1190   1.401       .  A
C1186      C1187   1.404       .  A
C1186      H1191   1.083       .  S
C1187      C1272   1.486       .  S
C1187      C1188   1.405       .  A
C1188      C1189   1.405       .  A
C1188      H1192   1.083       .  S
C1189      C1235   1.486       .  S
C1189      C1190   1.405       .  A
C1190      H1193   1.084       .  S
C1194      C1245   1.470       .  S
C1194      C1195   1.400       .  A
C1194      C1199   1.400       .  A
C1195      C1196   1.402       .  A
C1195      H1200   1.083       .  S
C1196      C1255   1.472       .  S
C1196      C1197   1.402       .  A
C1197      C1198   1.405       .  A
C1197      H1201   1.084       .  S
C1198      C1232   1.477       .  S
C1198      C1199   1.402       .  A
C1199      H1202   1.084       .  S
C1203      C1312   1.481       .  S
C1203      C1204   1.403       .  A
C1203      C1208   1.404       .  A
C1204      C1205   1.407       .  A
C1204      H1209   1.084       .  S
C1205      C1225   1.486       .  S
C1205      C1206   1.406       .  A
C1206      C1207   1.404       .  A
C1206      H1210   1.084       .  S
C1207      C1305   1.485       .  S
C1207      C1208   1.402       .  A
C1208      H1211   1.083       .  S
C1212      C1295   1.486       .  S
C1212      C1213   1.402       .  A
C1212      C1217   1.401       .  A
C1213      C1214   1.406       .  A
C1213      H1218   1.082       .  S
C1214      C1282   1.495       .  S
C1214      C1215   1.409       .  A
C1215      C1216   1.408       .  A
C1215      H1219   1.082       .  S
C1216      C1222   1.483   1_565  S
C1216      C1217   1.404       .  A
C1217      H1220   1.084   1_565  S
C1221      C1222   1.407   1_565  A
C1221      C1226   1.397       .  A
C1221      F1228   1.358       .  S
C1223      C1224   1.401       .  A
C1223      F1230   1.358       .  S
C1224      C1225   1.409       .  A
C1224      F1229   1.358       .  S
C1226      F1227   1.358       .  S
C1231      C1232   1.403       .  A
C1231      C1236   1.398       .  A
C1231      F1238   1.358       .  S
C1233      C1234   1.398       .  A
C1233      F1240   1.358       .  S
C1234      F1239   1.358       .  S
C1235      C1236   1.410       .  A
C1236      F1237   1.358       .  S
C1241      C1242   1.406       .  A
C1241      C1246   1.402       .  A
C1241      F1248   1.358       .  S
C1243      C1244   1.394       .  A
C1243      F1250   1.358       .  S
C1244      F1249   1.358       .  S
C1245      C1246   1.405       .  A
C1246      F1247   1.357       .  S
C1251      C1256   1.402       .  A
C1251      F1258   1.357       .  S
C1252      C1253   1.408       .  A
C1253      C1254   1.395       .  A
C1253      F1260   1.357       .  S
C1254      C1255   1.400       .  A
C1254      F1259   1.358       .  S
C1256      F1257   1.357       .  S
C1261      C1266   1.403       .  A
C1261      F1268   1.357       .  S
C1262      C1263   1.407       .  A
C1263      C1264   1.395       .  A
C1263      F1270   1.357       .  S
C1264      C1265   1.400       .  A
C1264      F1269   1.358       .  S
C1266      F1267   1.357       .  S
C1271      C1272   1.408       .  A
C1271      C1276   1.402       .  A
C1271      F1278   1.358       .  S
C1273      C1274   1.395       .  A
C1273      F1280   1.358       .  S
C1274      F1279   1.358       .  S
C1275      C1276   1.410       .  A
C1276      F1277   1.358       .  S
C1281      C1282   1.414       .  A
C1281      C1286   1.405       .  A
C1281      F1288   1.357       .  S
C1283      C1284   1.393       .  A
C1283      F1290   1.358       .  S
C1284      F1289   1.357       .  S
C1285      C1286   1.403       .  A
C1286      F1287   1.357       .  S
C1291      C1292   1.402       .  A
C1291      C1296   1.401       .  A
C1291      F1298   1.357       .  S
C1293      C1294   1.394       .  A
C1293      F1300   1.357       .  S
C1294      F1299   1.358       .  S
C1295      C1296   1.410       .  A
C1296      F1297   1.357       .  S
C1301      C1306   1.401       .  A
C1301      F1308   1.358       .  S
C1302      C1303   1.413   1_545  A
C1303      C1304   1.397       .  A
C1303      F1310   1.358       .  S
C1304      F1309   1.358       .  S
C1305      C1306   1.408       .  A
C1306      F1307   1.358       .  S
C1311      C1316   1.403       .  A
C1311      F1318   1.358       .  S
C1312      C1313   1.402       .  A
C1313      C1314   1.393       .  A
C1313      F1320   1.358       .  S
C1314      C1315   1.412       .  A
C1314      F1319   1.358       .  S
C1316      F1317   1.358       .  S
