geometry optimzed in LAMMPS
_audit_creation_date              2020-12-01 
_audit_creation_method            'lammps2cif' 
_symmetry_space_group_name_H-M    'P1' 
_symmetry_Int_Tables_number       1 
_symmetry_cell_setting            triclinic 
loop_ 
_symmetry_equiv_pos_as_xyz 
  x,y,z 
_cell_length_a                    52.33715618 
_cell_length_b                    52.225373654592175 
_cell_length_c                    67.19736248437727 
_cell_angle_alpha                 89.96280936827557 
_cell_angle_beta                  90.12438122526959 
_cell_angle_gamma                 119.83850395440402 
loop_ 
_atom_site_label 
_atom_site_type_symbol 
_atom_site_fract_x 
_atom_site_fract_y 
_atom_site_fract_z 
_atom_site_charge 
Zn1        Zn  0.85170495  0.20649857  0.16992354     1.49700
Zn2        Zn  0.84701318  0.15213834  0.14548946     1.49400
Zn3        Zn  0.84392756  0.14904993  0.19250386     1.49100
Zn4        Zn  0.79053838  0.14635309  0.16870268     1.49500
O5          O  0.83330489  0.16355737  0.16908764    -1.82300
O6          O  0.87605877  0.22514452  0.14531833    -0.72900
O7          O  0.86893913  0.13085123  0.15265477    -0.72700
O8          O  0.86934027  0.18238528  0.21064027    -0.72300
O9          O  0.87374592  0.18737323  0.12869421    -0.72900
O10         O  0.87749793  0.22245361  0.19406506    -0.72500
O11         O  0.86626570  0.12830776  0.18557835    -0.73100
O12         O  0.77048038  0.11724213  0.19095222    -0.72500
O13         O  0.81261737  0.12549999  0.12827527    -0.73300
O14         O  0.80833001  0.12008919  0.20754771    -0.72700
O15         O  0.77428288  0.12417394  0.14342466    -0.73100
O16         O  0.77888293  0.17757388  0.17094937    -0.73000
O17         O  0.82138792  0.21952513  0.17191114    -0.72800
C18         C  0.88284779  0.21487032  0.13030498     0.79000
C19         C  0.87463434  0.12281872  0.16917870     0.79500
C20         C  0.88158963  0.21031970  0.20923774     0.78400
C21         C  0.78071697  0.10919419  0.20531868     0.78800
C22         C  0.78523731  0.11697849  0.12906674     0.79900
C23         C  0.79334866  0.20560480  0.17219523     0.79000
C24         C  0.01629927  0.32174728  0.32196035     0.82100
N25         N  0.00939293  0.33350160  0.33762311    -0.76300
C26         C  0.02744919  0.34374106  0.35369158     0.84500
N27         N  0.05269884  0.34238685  0.35401682    -0.76200
C28         C  0.05987847  0.33077188  0.33837609     0.84600
N29         N  0.04154849  0.32045705  0.32244256    -0.77900
C30         C  0.66819057  0.96772849  0.31419541     0.82100
N31         N  0.66797389  0.94168630  0.31323501    -0.76300
C32         C  0.65802852  0.92261406  0.32877120     0.84500
N33         N  0.64816911  0.92971587  0.34538521    -0.76200
C34         C  0.64850910  0.95586638  0.34666109     0.84600
N35         N  0.65863343  0.97477310  0.33097475    -0.77900
C36         C  0.99014858  0.35284448  0.01660748     0.82100
N37         N  0.99387697  0.38053256  0.01780818    -0.76300
C38         C  0.00600355  0.39979939  0.00241594     0.84500
N39         N  0.01427994  0.39110392  0.98579501    -0.76200
C40         C  0.01079422  0.36365210  0.98446881     0.84600
N41         N  0.99878643  0.34455949  0.99991250    -0.77900
C42         C  0.64687829  0.01357310  0.01612364     0.82100
N43         N  0.65279803  0.00026064  0.00092091    -0.76300
C44         C  0.63256926  0.98607055  0.98639764     0.84500
N45         N  0.60624331  0.98529524  0.98708330    -0.76200
C46         C  0.60016184  0.99865801  0.00220699     0.84600
N47         N  0.62050684  0.01262777  0.01670394    -0.77900
Zn48       Zn  0.45657248  0.48560519  0.49648387     1.49700
Zn49       Zn  0.50805479  0.49140344  0.46787742     1.49400
Zn50       Zn  0.51716659  0.54722934  0.49377090     1.49100
Zn51       Zn  0.51584396  0.49101833  0.51410404     1.49500
O52         O  0.49931965  0.50397492  0.49305589    -1.82300
O53         O  0.43518941  0.46284290  0.47174787    -0.72900
O54         O  0.53303700  0.52635778  0.45077847    -0.72700
O55         O  0.48603445  0.55936652  0.49720622    -0.72300
O56         O  0.47114069  0.46629376  0.45241720    -0.72900
O57         O  0.44468127  0.51648595  0.50076678    -0.72500
O58         O  0.53863312  0.56493000  0.46810999    -0.73100
O59         O  0.54546464  0.52553244  0.52969047    -0.72500
O60         O  0.52954735  0.46866786  0.47141403    -0.73300
O61         O  0.54671204  0.56500559  0.51649258    -0.72700
O62         O  0.53578483  0.46895450  0.50396213    -0.73100
O63         O  0.48442820  0.46433932  0.53302945    -0.73000
O64         O  0.44268785  0.45851806  0.52048359    -0.72800
C65         C  0.44400372  0.45728722  0.45549650     0.79000
C66         C  0.54319732  0.55400992  0.45247702     0.79500
C67         C  0.45833138  0.54458573  0.50022006     0.78400
C68         C  0.55557408  0.55327080  0.52943135     0.78800
C69         C  0.53933827  0.46163869  0.48656757     0.79900
C70         C  0.45659100  0.45294235  0.53382486     0.79000
Zn71       Zn  0.63842061  0.78724471  0.83128459     1.49700
Zn72       Zn  0.64165928  0.85020489  0.83262656     1.49400
Zn73       Zn  0.68769560  0.83994282  0.85810341     1.49100
Zn74       Zn  0.69233381  0.84277413  0.81148268     1.49500
O75         O  0.66480116  0.82997379  0.83347418    -1.82300
O76         O  0.59634057  0.77761888  0.82840387    -0.72900
O77         O  0.64742721  0.87337719  0.85779833    -0.72700
O78         O  0.67703775  0.80309451  0.87345734    -0.72300
O79         O  0.59800166  0.82094448  0.82967689    -0.72900
O80         O  0.64204483  0.76661374  0.85561834    -0.72500
O81         O  0.67913418  0.86618546  0.87543188    -0.73100
O82         O  0.73429081  0.86118401  0.82032442    -0.72500
O83         O  0.65387396  0.87847957  0.80936754    -0.73300
O84         O  0.73159067  0.86088045  0.85320858    -0.72700
O85         O  0.68857270  0.87222376  0.79505704    -0.73100
O86         O  0.68472941  0.80951385  0.79348609    -0.73000
O87         O  0.64717925  0.77010652  0.80704078    -0.72800
C88         C  0.58355706  0.79293115  0.82794352     0.79000
C89         C  0.66278214  0.87768307  0.87347226     0.79500
C90         C  0.65855620  0.77582337  0.87096238     0.78400
C91         C  0.74668445  0.86733509  0.83728907     0.78800
C92         C  0.67269147  0.88430936  0.79560626     0.79900
C93         C  0.66635112  0.78202062  0.79337748     0.79000
C94         C  0.68811555  0.65908926  0.64531997     0.82100
N95         N  0.71483527  0.66070686  0.64607743    -0.76300
C96         C  0.73192663  0.67073712  0.66261006     0.84500
N97         N  0.72197469  0.67906480  0.67851804    -0.76200
C98         C  0.69531207  0.67747079  0.67820242     0.84600
N99         N  0.67843784  0.66751787  0.66148793    -0.77900
C100        C  0.69117748  0.03557880  0.65213611     0.82100
N101        N  0.68508542  0.01657686  0.66754655    -0.76300
C102        C  0.70498173  0.02308419  0.68244905     0.84500
N103        N  0.73113928  0.04862041  0.68162972    -0.76200
C104        C  0.73758685  0.06772848  0.66630039     0.84600
N105        N  0.71740691  0.06111683  0.65162704    -0.77900
C106        C  0.62698104  0.64988069  0.99110316     0.82100
N107        N  0.59960198  0.62642132  0.99343362    -0.76300
C108        C  0.59324443  0.60766383  0.00898416     0.84500
N109        N  0.61482470  0.61295116  0.02237546    -0.76200
C110        C  0.64238994  0.63654072  0.02031084     0.84600
N111        N  0.64838372  0.65478559  0.00445962    -0.77900
Zn112      Zn  0.97139962  0.48968752  0.47908385     1.49700
Zn113      Zn  0.01807308  0.48299177  0.50632450     1.49400
Zn114      Zn  0.01656463  0.54347431  0.50606705     1.49100
Zn115      Zn  0.96354700  0.48526931  0.52592257     1.49500
O116        O  0.99248705  0.50038006  0.50441355    -1.82300
O117        O  0.98095115  0.46300495  0.46357061    -0.72900
O118        O  0.06065778  0.51459454  0.50957229    -0.72700
O119        O  0.01329595  0.56294846  0.48101166    -0.72300
O120        O  0.01468276  0.45956021  0.48162315    -0.72900
O121        O  0.98277838  0.52531340  0.46202749    -0.72500
O122        O  0.05970230  0.55655930  0.50972077    -0.73100
O123        O  0.96871605  0.51827060  0.54366221    -0.72500
O124        O  0.00728891  0.45563005  0.52998031    -0.73300
O125        O  0.00398081  0.55885474  0.52929759    -0.72700
O126        O  0.96922482  0.45710208  0.54327752    -0.73100
O127        O  0.92151029  0.46492701  0.51548681    -0.73000
O128        O  0.92748151  0.46856096  0.48274157    -0.72800
C129        C  0.99870968  0.45331259  0.46606884     0.79000
C130        C  0.07391198  0.54265619  0.51073997     0.79500
C131        C  0.99947644  0.55290079  0.46468548     0.78400
C132        C  0.98515579  0.54617285  0.54308809     0.78800
C133        C  0.98751826  0.44774465  0.54331593     0.79900
C134        C  0.91080687  0.46010579  0.49793616     0.79000
Zn135      Zn  0.83055019  0.63952863  0.18676010     1.49700
Zn136      Zn  0.82395655  0.68734823  0.16105128     1.49400
Zn137      Zn  0.88569654  0.68935387  0.16207841     1.49100
Zn138      Zn  0.83158947  0.63673681  0.13944932     1.49500
O139        O  0.84295106  0.66324159  0.16236016    -1.82300
O140        O  0.80334746  0.64808912  0.20335427    -0.72900
O141        O  0.85378805  0.73085710  0.16030673    -0.72700
O142        O  0.90304910  0.68515950  0.18768080    -0.72300
O143        O  0.79835890  0.68064354  0.18508625    -0.72900
O144        O  0.86554350  0.64889427  0.20401187    -0.72500
O145        O  0.89666775  0.73213683  0.16015576    -0.73100
O146        O  0.86697316  0.64328799  0.12372461    -0.72500
O147        O  0.79897282  0.67785260  0.13637578    -0.73300
O148        O  0.90492787  0.68025240  0.13912628    -0.72700
O149        O  0.80499156  0.64338372  0.12129575    -0.73100
O150        O  0.80952960  0.59394334  0.14761938    -0.73000
O151        O  0.80904798  0.59607277  0.18054179    -0.72800
C152        C  0.79253583  0.66496180  0.20074458     0.79000
C153        C  0.88181495  0.74540018  0.15991687     0.79500
C154        C  0.89267520  0.66834097  0.20277153     0.78400
C155        C  0.89452042  0.66119959  0.12519178     0.78800
C156        C  0.79370989  0.66005117  0.12197206     0.79900
C157        C  0.80211445  0.58118808  0.16446674     0.79000
C158        C  0.65229071  0.68831827  0.33824704     0.82100
N159        N  0.65164485  0.71385005  0.33772226    -0.76300
C160        C  0.66572037  0.73398310  0.32321708     0.84500
N161        N  0.68029594  0.72810708  0.30878836    -0.76200
C162        C  0.68108112  0.70238899  0.30908074     0.84600
N163        N  0.66714474  0.68266229  0.32400136    -0.77900
C164        C  0.02631970  0.70606063  0.32008476     0.82100
N165        N  0.05212215  0.73198836  0.32004625    -0.76300
C166        C  0.07130171  0.73938098  0.33540969     0.84500
N167        N  0.06451411  0.72053742  0.35096949    -0.76200
C168        C  0.03869407  0.69449709  0.35134230     0.84600
N169        N  0.01963259  0.68742408  0.33580133    -0.77900
Zn170      Zn  0.54257553  0.02254411  0.49818401     1.49700
Zn171      Zn  0.48445035  0.96933192  0.47891932     1.49400
Zn172      Zn  0.48878231  0.97688610  0.52598643     1.49100
Zn173      Zn  0.48138129  0.02278337  0.49983294     1.49500
O174        O  0.49954605  0.99795939  0.50068961    -1.82300
O175        O  0.55779154  0.00987993  0.47450569    -0.72900
O176        O  0.46087555  0.92741554  0.48908432    -0.72700
O177        O  0.52507577  0.98488692  0.54083234    -0.72300
O178        O  0.51742203  0.97201662  0.46198649    -0.72900
O179        O  0.56249738  0.01830717  0.52301358    -0.72500
O180        O  0.46442171  0.93312815  0.52179854    -0.73100
O181        O  0.45962354  0.02061137  0.52502070    -0.72500
O182        O  0.45837179  0.97737626  0.46111189    -0.73300
O183        O  0.46576836  0.98938430  0.54388205    -0.72700
O184        O  0.45395913  0.01240679  0.47663573    -0.73100
O185        O  0.51165364  0.06503270  0.49572537    -0.73000
O186        O  0.55430582  0.06569374  0.49391520    -0.72800
C187        C  0.54518951  0.98928059  0.46170038     0.79000
C188        C  0.45502476  0.91650686  0.50655255     0.79500
C189        C  0.55258563  0.00200739  0.53844399     0.78400
C190        C  0.45564310  0.00685320  0.54138017     0.78800
C191        C  0.44785863  0.99470379  0.46210300     0.79900
C192        C  0.53939192  0.07897067  0.49325294     0.79000
Zn193      Zn  0.14758705  0.35207787  0.83147611     1.49700
Zn194      Zn  0.15344347  0.29856103  0.81422782     1.49400
Zn195      Zn  0.20930385  0.35270875  0.83390711     1.49100
Zn196      Zn  0.15524040  0.30855899  0.86122017     1.49500
O197        O  0.16641685  0.32802984  0.83530892    -1.82300
O198        O  0.12295951  0.34062960  0.80665754    -0.72900
O199        O  0.18650936  0.30533562  0.79628943    -0.72700
O200        O  0.22027877  0.39537621  0.83230155    -0.72300
O201        O  0.12483559  0.30145258  0.79585250    -0.72900
O202        O  0.17781906  0.39500614  0.82926532    -0.72500
O203        O  0.22570849  0.34416254  0.80894456    -0.73100
O204        O  0.19128250  0.32184606  0.87893039    -0.72500
O205        O  0.13465579  0.25753673  0.82534045    -0.73300
O206        O  0.22901294  0.34852661  0.85878639    -0.72700
O207        O  0.13433281  0.26426307  0.85802800    -0.73100
O208        O  0.12647478  0.31753206  0.87498746    -0.73000
O209        O  0.12098616  0.34767378  0.85433409    -0.72800
C210        C  0.11571567  0.31981908  0.79418750     0.79000
C211        C  0.21362762  0.32471162  0.79534542     0.79500
C212        C  0.20581506  0.40887345  0.83018512     0.78400
C213        C  0.21896163  0.33693330  0.87575366     0.78800
C214        C  0.12792717  0.24738472  0.84294399     0.79900
C215        C  0.11482714  0.33315156  0.87051390     0.79000
C216        C  0.35073840  0.31815883  0.64911257     0.82100
N217        N  0.33794041  0.32531913  0.66409561    -0.76300
C218        C  0.32507375  0.30641803  0.67958620     0.84500
N219        N  0.32506194  0.28042385  0.67995110    -0.76200
C220        C  0.33762534  0.27299181  0.66509273     0.84600
N221        N  0.35044359  0.29200964  0.64974022    -0.77900
C222        C  0.96290309  0.30406370  0.65187868     0.82100
N223        N  0.93687056  0.27836782  0.65203343    -0.76300
C224        C  0.93053534  0.25833485  0.66670080     0.84500
N225        N  0.95050830  0.26401435  0.68132180    -0.76200
C226        C  0.97683046  0.28948732  0.68141865     0.84600
N227        N  0.98282285  0.30952391  0.66663074    -0.77900
Zn228      Zn  0.30398391  0.15037351  0.18952368     1.49700
Zn229      Zn  0.35715618  0.20850173  0.17134807     1.49400
Zn230      Zn  0.35697931  0.14688317  0.16933429     1.49100
Zn231      Zn  0.31214808  0.15691638  0.14239655     1.49500
O232        O  0.33269790  0.16575430  0.16806521    -1.82300
O233        O  0.30745523  0.18227222  0.20778526    -0.72900
O234        O  0.39985447  0.21973864  0.17459542    -0.72700
O235        O  0.34449621  0.11723480  0.19163372    -0.72300
O236        O  0.34465997  0.22299416  0.19538746    -0.72900
O237        O  0.30850453  0.12105832  0.20598167    -0.72500
O238        O  0.39958148  0.17701847  0.17413455    -0.73100
O239        O  0.32228656  0.13158120  0.12518679    -0.72500
O240        O  0.35392117  0.23014647  0.14737283    -0.73300
O241        O  0.35456605  0.12610016  0.14356700    -0.72700
O242        O  0.32323198  0.19429219  0.12720045    -0.73100
O243        O  0.26819523  0.13554937  0.14612696    -0.73000
O244        O  0.26301402  0.13038702  0.17885429    -0.72800
C245        C  0.32441334  0.21008345  0.20831407     0.79000
C246        C  0.41329457  0.20504267  0.17558499     0.79500
C247        C  0.32513839  0.10980211  0.20519256     0.78400
C248        C  0.33992901  0.12165522  0.12752191     0.78800
C249        C  0.33975940  0.22161993  0.13102254     0.79900
C250        C  0.25193312  0.12637261  0.16150992     0.79000
C251        C  0.30340419  0.35686139  0.34182099     0.82100
N252        N  0.30997809  0.34404924  0.32661151    -0.76300
C253        C  0.28974611  0.32901677  0.31214657     0.84500
N254        N  0.26286346  0.32711415  0.31298438    -0.76200
C255        C  0.25612298  0.33984739  0.32820155     0.84600
N256        N  0.27644775  0.35447974  0.34258171    -0.77900
C257        C  0.29539682  0.97693377  0.32030643     0.82100
N258        N  0.26924716  0.95144337  0.32084579    -0.76300
C259        C  0.26118016  0.93363908  0.33705383     0.84500
N260        N  0.27975664  0.94164750  0.35295611    -0.76200
C261        C  0.30610824  0.96721496  0.35254837     0.84600
N262        N  0.31367756  0.98468155  0.33619307    -0.77900
C263        C  0.35929763  0.37951815  0.99148008     0.82100
N264        N  0.38399570  0.40646606  0.99238708    -0.76300
C265        C  0.40168817  0.41493556  0.00864772     0.84500
N266        N  0.39478807  0.39615640  0.02420229    -0.76200
C267        C  0.37043113  0.36896370  0.02364679     0.84600
N268        N  0.35263209  0.36077722  0.00726153    -0.77900
Zn269      Zn  0.18432431  0.82729769  0.80692211     1.49700
Zn270      Zn  0.18416573  0.82074741  0.85428161     1.49400
Zn271      Zn  0.18958520  0.87905026  0.83537113     1.49100
Zn272      Zn  0.12869627  0.81691612  0.83302649     1.49500
O273        O  0.17173574  0.83615631  0.83230752    -1.82300
O274        O  0.20280921  0.80144315  0.81109297    -0.72900
O275        O  0.21095687  0.85292143  0.87308501    -0.72700
O276        O  0.21464139  0.90034123  0.81130947    -0.72300
O277        O  0.20504017  0.80040253  0.84402474    -0.72900
O278        O  0.21349727  0.86460668  0.79277691    -0.72500
O279        O  0.21511737  0.89388496  0.86022146    -0.73100
O280        O  0.11615887  0.84702065  0.83695774    -0.72500
O281        O  0.14999569  0.79017997  0.87005853    -0.73300
O282        O  0.15787296  0.89004461  0.83801056    -0.72700
O283        O  0.11069037  0.78688341  0.85512201    -0.73100
O284        O  0.11102468  0.79663450  0.80711543    -0.73000
O285        O  0.14974476  0.80658198  0.78822019    -0.72800
C286        C  0.21020852  0.79341220  0.82699386     0.79000
C287        C  0.22134421  0.88072608  0.87375027     0.79500
C288        C  0.22243610  0.89184722  0.79582649     0.78400
C289        C  0.12984301  0.87501043  0.83850135     0.78800
C290        C  0.12220024  0.77878676  0.86865420     0.79900
C291        C  0.12208495  0.79531322  0.79056955     0.79000
C292        C  0.97505597  0.69319204  0.68064855     0.82100
N293        N  0.97984125  0.67889141  0.66545868    -0.76300
C294        C  0.95935864  0.66510883  0.65094715     0.84500
N295        N  0.93388812  0.66589231  0.65173222    -0.76200
C296        C  0.92863841  0.67992159  0.66673860     0.84600
N297        N  0.94916797  0.69341825  0.68121628    -0.77900
C298        C  0.32961405  0.03645561  0.68501855     0.82100
N299        N  0.32932656  0.06235387  0.68515787    -0.76300
C300        C  0.34064686  0.08141396  0.66960701     0.84500
N301        N  0.35281807  0.07464034  0.65408687    -0.76200
C302        C  0.35357446  0.04901646  0.65387061     0.84600
N303        N  0.34163365  0.02987010  0.66931196    -0.77900
C304        C  0.02539796  0.64144166  0.98256554     0.82100
N305        N  0.02714702  0.61631863  0.98329881    -0.76300
C306        C  0.02065854  0.60015507  0.00031227     0.84500
N307        N  0.01223173  0.60941169  0.01663084    -0.76200
C308        C  0.01040125  0.63446504  0.01625998     0.84600
N309        N  0.01701335  0.65027856  0.99911544    -0.77900
C310        C  0.36470119  0.98935004  0.98570479     0.82100
N311        N  0.38892149  0.98620502  0.98755343    -0.76300
C312        C  0.40697406  0.99707668  0.00368161     0.84500
N313        N  0.40040885  0.01097515  0.01814495    -0.76200
C314        C  0.37647007  0.01441365  0.01652382     0.84600
N315        N  0.35881002  0.00370320  0.00027993    -0.77900
C316        C  0.03118359  0.01450762  0.15604333     0.82100
N317        N  0.01721647  0.98452004  0.15530287    -0.76300
C318        C  0.98757101  0.96835052  0.15793151     0.82100
N319        N  0.97192245  0.98229966  0.16116831    -0.76200
C320        C  0.98560375  0.01220790  0.16169756     0.84600
N321        N  0.01518252  0.02806954  0.15919229    -0.77900
C322        C  0.64536697  0.29979834  0.47336136     0.82100
N323        N  0.67512410  0.31538670  0.47587653    -0.76300
C324        C  0.68982053  0.34537583  0.47673578     0.84500
N325        N  0.67419353  0.35964285  0.47508201    -0.76200
C326        C  0.64451391  0.34461908  0.47253575     0.84600
N327        N  0.63023142  0.31463515  0.47176064    -0.77900
C328        C  0.29617478  0.64977557  0.51912601     0.82100
N329        N  0.31140342  0.67965108  0.52040205    -0.76300
C330        C  0.34127352  0.69477746  0.52043010     0.84500
N331        N  0.35590918  0.67944329  0.51922788    -0.76200
C332        C  0.34119402  0.64947805  0.51803548     0.84600
N333        N  0.31118538  0.63475297  0.51783793    -0.77900
C334        C  0.96841352  0.98029537  0.84638287     0.82100
N335        N  0.98418707  0.96605644  0.84639595    -0.76300
C336        C  0.01391906  0.98120625  0.84843000     0.84500
N337        N  0.02797695  0.01097140  0.85043753    -0.76200
C338        C  0.01271173  0.02569518  0.85056832     0.84600
N339        N  0.98291897  0.01016481  0.84849487    -0.77900
C340        C  0.36154479  0.67701623  0.82072919     0.82100
N341        N  0.34598908  0.69139432  0.82174873    -0.76300
C342        C  0.31618828  0.67644823  0.82316536     0.84500
N343        N  0.30187743  0.64650924  0.82353195    -0.76200
C344        C  0.31688592  0.63151331  0.82257352     0.84600
N345        N  0.34678760  0.64699646  0.82119071    -0.77900
C346        C  0.63557923  0.31541414  0.18448483     0.82100
N347        N  0.65058511  0.34522644  0.18146730    -0.76300
C348        C  0.68045228  0.36005685  0.17942340     0.84500
N349        N  0.69491923  0.34465859  0.18031695    -0.76200
C350        C  0.68053202  0.31516577  0.18320635     0.84600
N351        N  0.65083341  0.30059181  0.18533898    -0.77900
C352        C  0.28538208  0.96512981  0.71364802     0.14500
C353        C  0.29003865  0.97520328  0.73347968     0.01500
C354        C  0.30872325  0.00551083  0.73721600     0.16400
C355        C  0.32144822  0.02544283  0.72146409     0.25900
C356        C  0.31654813  0.01536857  0.70168164    -0.40500
C357        C  0.29880540  0.98497472  0.69793044     0.32900
C358        C  0.27421306  0.95446078  0.75012011     0.01500
F359        F  0.31480838  0.01582923  0.75617681    -0.12800
F360        F  0.29335161  0.97460947  0.67896541    -0.13300
C361        C  0.27485778  0.92798344  0.75232129     0.16400
C362        C  0.25839465  0.90778048  0.76729131     0.25900
C363        C  0.24142054  0.91392398  0.78069268    -0.40400
C364        C  0.24152951  0.94084174  0.77879249     0.32800
C365        C  0.25743483  0.96066092  0.76356941     0.14500
F366        F  0.29156423  0.92169961  0.74002144    -0.12800
F367        F  0.22512247  0.94750628  0.79109845    -0.13300
F368        F  0.25922765  0.88226409  0.76868926    -0.15600
F369        F  0.25541484  0.98545721  0.76148822    -0.14100
F370        F  0.26687894  0.93621799  0.70939487    -0.14100
F371        F  0.33903082  0.05457041  0.72557632    -0.15600
C372        C  0.01392292  0.73691146  0.72722209     0.14500
C373        C  0.04127098  0.73830553  0.72591327     0.01500
C374        C  0.04718026  0.72515300  0.70976304     0.16400
C375        C  0.02579028  0.71044275  0.69507749     0.25900
C376        C  0.99796584  0.70872554  0.69628224    -0.40500
C377        C  0.99245583  0.72231814  0.71262381     0.32900
C378        C  0.06303208  0.75247200  0.74198317     0.01500
F379        F  0.07353561  0.72612109  0.70841337    -0.12800
F380        F  0.96624614  0.72144212  0.71474266    -0.13300
C381        C  0.05855185  0.73805028  0.76033726     0.16400
C382        C  0.07787667  0.75204158  0.77616635     0.25900
C383        C  0.10224024  0.78043205  0.77371123    -0.40400
C384        C  0.10697050  0.79475824  0.75523880     0.32800
C385        C  0.08735466  0.78086954  0.73946021     0.14500
F386        F  0.03533603  0.71042523  0.76288618    -0.12800
F387        F  0.12977088  0.82266104  0.75279623    -0.13300
F388        F  0.07301404  0.73776775  0.79384693    -0.15600
F389        F  0.09152749  0.79540059  0.72194481    -0.14100
F390        F  0.00802777  0.74976031  0.74276056    -0.14100
F391        F  0.03253829  0.69791304  0.67978774    -0.15600
C392        C  0.29705148  0.96191260  0.95221377     0.14500
C393        C  0.30375190  0.94816650  0.93675493     0.01500
C394        C  0.33130492  0.94963155  0.93677239     0.16400
C395        C  0.35127846  0.96338679  0.95237199     0.25900
C396        C  0.34431109  0.97639248  0.96834250    -0.40500
C397        C  0.31708632  0.97599709  0.96776052     0.32900
C398        C  0.28159867  0.93091352  0.92116171     0.01500
F399        F  0.33886150  0.93750197  0.92163174    -0.12800
F400        F  0.30920905  0.98846552  0.98248660    -0.13300
C401        C  0.26876067  0.94376260  0.90933846     0.16400
C402        C  0.24872988  0.92741373  0.89420074     0.25900
C403        C  0.24132111  0.89789846  0.89047131    -0.40400
C404        C  0.25355455  0.88491015  0.90286040     0.32800
C405        C  0.27331113  0.90119434  0.91800742     0.14500
F406        F  0.27610361  0.97236926  0.91213629    -0.12800
F407        F  0.24684750  0.85645740  0.90023215    -0.13300
F408        F  0.23652634  0.94051731  0.88331384    -0.15600
F409        F  0.28428515  0.88775711  0.92976104    -0.14100
F410        F  0.27052768  0.96067783  0.95273577    -0.14100
F411        F  0.37732350  0.96363268  0.95176179    -0.15600
C412        C  0.05895297  0.73221104  0.90368226     0.14500
C413        C  0.06852635  0.71389798  0.91227574     0.01500
C414        C  0.09501108  0.71605428  0.90579416     0.16400
C415        C  0.11224290  0.73688772  0.89146305     0.25900
C416        C  0.10309788  0.75575440  0.88309693    -0.40500
C417        C  0.07599488  0.75284855  0.88909200     0.32900
C418        C  0.05279222  0.69450528  0.92933054     0.01500
F419        F  0.10482249  0.69874813  0.91400142    -0.12800
F420        F  0.06663914  0.77088402  0.88151390    -0.13300
C421        C  0.04192723  0.66396911  0.92819496     0.16400
C422        C  0.03206262  0.64648793  0.94533857     0.25900
C423        C  0.03299052  0.65930366  0.96400310    -0.40400
C424        C  0.04219958  0.68969687  0.96477896     0.32800
C425        C  0.05195717  0.70704864  0.94759933     0.14500
F426        F  0.04152788  0.65121238  0.91050707    -0.12800
F427        F  0.04339010  0.70314679  0.98231218    -0.13300
F428        F  0.02183899  0.61707223  0.94361578    -0.15600
F429        F  0.06233786  0.73654075  0.94904483    -0.14100
F430        F  0.03335531  0.73042206  0.90967130    -0.14100
F431        F  0.13796964  0.73863208  0.88583699    -0.15600
C432        C  0.29944664  0.73932667  0.82630908     0.14500
C433        C  0.26869127  0.72432312  0.82462759     0.01500
C434        C  0.25327166  0.69346893  0.82314902     0.16400
C435        C  0.26849419  0.67776024  0.82295522     0.25900
C436        C  0.29960173  0.69276874  0.82416987    -0.40500
C437        C  0.31477826  0.72382730  0.82615879     0.32900
C438        C  0.25284211  0.74106237  0.82515025     0.01500
F439        F  0.22338526  0.67851548  0.82226073    -0.12800
F440        F  0.34451395  0.73948248  0.82818048    -0.13300
C441        C  0.23763630  0.74253019  0.80834274     0.16400
C442        C  0.22387317  0.75968141  0.80873113     0.25900
C443        C  0.22504504  0.77551289  0.82604391    -0.40400
C444        C  0.24017580  0.77360118  0.84289387     0.32800
C445        C  0.25389172  0.75658401  0.84239788     0.14500
F446        F  0.23661037  0.72777358  0.79145634    -0.12800
F447        F  0.24218793  0.78855589  0.85988840    -0.13300
F448        F  0.20914787  0.76042419  0.79227934    -0.15600
F449        F  0.26824049  0.75518060  0.85886232    -0.14100
F450        F  0.31472010  0.76920017  0.82798917    -0.14100
F451        F  0.25258779  0.64790585  0.82153315    -0.15600
C452        C  0.07565609  0.96474075  0.83907691     0.14500
C453        C  0.06326175  0.93558330  0.84600701     0.01500
C454        C  0.03463834  0.92155855  0.85393708     0.16400
C455        C  0.01854738  0.93632788  0.85472155     0.25900
C456        C  0.03095995  0.96557580  0.84782471    -0.40500
C457        C  0.05977268  0.97967682  0.84009468     0.32900
C458        C  0.08003111  0.91970461  0.84459434     0.01500
F459        F  0.02240458  0.89365587  0.86120903    -0.12800
F460        F  0.07229675  0.00761631  0.83285738    -0.13300
C461        C  0.10837969  0.93188335  0.85292086     0.16400
C462        C  0.12466299  0.91745054  0.85089625     0.25900
C463        C  0.11267387  0.89030104  0.84077718    -0.40400
C464        C  0.08405305  0.87787231  0.83277132     0.32800
C465        C  0.06800982  0.89256696  0.83452550     0.14500
F466        F  0.12015749  0.95760726  0.86327189    -0.12800
F467        F  0.07187678  0.85191093  0.82266981    -0.13300
F468        F  0.15189996  0.92974948  0.85922960    -0.15600
F469        F  0.04100924  0.88065927  0.82587076    -0.14100
F470        F  0.10290035  0.97851616  0.83077099    -0.14100
F471        F  0.99107312  0.92217999  0.86265205    -0.15600
C472        C  0.17078835  0.07847165  0.17302696     0.14500
C473        C  0.15780963  0.08095138  0.15543270     0.01500
C474        C  0.17557492  0.09848528  0.13980539     0.16400
C475        C  0.20624522  0.11335468  0.14171030     0.25900
C476        C  0.21950134  0.11073409  0.15932219    -0.40500
C477        C  0.20134397  0.09315560  0.17499811     0.32900
C478        C  0.12557379  0.06538194  0.15375815     0.01500
F479        F  0.16316810  0.10155193  0.12286500    -0.12800
F480        F  0.21303477  0.08974139  0.19218078    -0.13300
C481        C  0.10960286  0.07626870  0.16383840     0.16400
C482        C  0.07892644  0.06001315  0.16423165     0.25900
C483        C  0.06366295  0.03239167  0.15456498    -0.40400
C484        C  0.07988898  0.02192574  0.14402576     0.32800
C485        C  0.11066537  0.03840823  0.14360334     0.14500
F486        F  0.12385015  0.10236229  0.17375784    -0.12800
F487        F  0.06605510  0.99578668  0.13416112    -0.13300
F488        F  0.06437459  0.07081202  0.17488763    -0.15600
F489        F  0.12601685  0.02767288  0.13381558    -0.14100
F490        F  0.15373231  0.06158080  0.18828092    -0.14100
F491        F  0.22285036  0.13080055  0.12650799    -0.15600
C492        C  0.37594830  0.09178862  0.09295795     0.14500
C493        C  0.35306078  0.07493096  0.07952273     0.01500
C494        C  0.32565733  0.07338610  0.08190111     0.16400
C495        C  0.32121845  0.08847265  0.09752997     0.25900
C496        C  0.34411675  0.10520613  0.11110849    -0.40500
C497        C  0.37150585  0.10664334  0.10864429     0.32900
C498        C  0.35787866  0.05869485  0.06326646     0.01500
F499        F  0.30301362  0.05673130  0.06934112    -0.12800
F500        F  0.39436257  0.12317103  0.12108333    -0.13300
C501        C  0.36666404  0.03792834  0.06776528     0.16400
C502        C  0.37270126  0.02356212  0.05253011     0.25900
C503        C  0.36958358  0.02934169  0.03250661    -0.40400
C504        C  0.36026987  0.04971719  0.02796733     0.32800
C505        C  0.35464341  0.06444066  0.04324837     0.14500
F506        F  0.36914775  0.03137796  0.08698013    -0.12800
F507        F  0.35777645  0.05624779  0.00874930    -0.13300
F508        F  0.38102590  0.00351791  0.05736887    -0.15600
F509        F  0.34697317  0.08500138  0.03850633    -0.14100
F510        F  0.40288410  0.09432437  0.09064449    -0.14100
F511        F  0.29431839  0.08607993  0.09965877    -0.15600
C512        C  0.35306677  0.29368918  0.10782565     0.14500
C513        C  0.34853447  0.28622816  0.08755218     0.01500
C514        C  0.34083594  0.25752448  0.08163611     0.16400
C515        C  0.33785083  0.23651342  0.09573737     0.25900
C516        C  0.34256719  0.24386575  0.11611133    -0.40500
C517        C  0.35008063  0.27269839  0.12201157     0.32900
C518        C  0.35359744  0.30867877  0.07228921     0.01500
F519        F  0.33715730  0.25015178  0.06204818    -0.12800
F520        F  0.35413328  0.28049694  0.14152795    -0.13300
C521        C  0.38241936  0.33072679  0.06785373     0.16400
C522        C  0.38780181  0.35029617  0.05212947     0.25900
C523        C  0.36432623  0.34833318  0.04055648    -0.40400
C524        C  0.33532721  0.32657031  0.04538568     0.32800
C525        C  0.33005219  0.30687945  0.06110702     0.14500
F526        F  0.40551033  0.33257529  0.07832034    -0.12800
F527        F  0.31205211  0.32456060  0.03509557    -0.13300
F528        F  0.41618811  0.37039521  0.04777755    -0.15600
F529        F  0.30195166  0.28598693  0.06544337    -0.14100
F530        F  0.36031184  0.32129756  0.11386543    -0.14100
F531        F  0.33133780  0.20927233  0.08932159    -0.15600
C532        C  0.29983376  0.00137411  0.26690240     0.14500
C533        C  0.31635688  0.03208199  0.26889998     0.01500
C534        C  0.32774422  0.04471661  0.28752669     0.16400
C535        C  0.32167753  0.02674688  0.30425812     0.25900
C536        C  0.30392762  0.99588286  0.30249785    -0.40500
C537        C  0.29367574  0.98334038  0.28356558     0.32900
C538        C  0.31847219  0.05093275  0.25210288     0.01500
F539        F  0.34364243  0.07450704  0.28960677    -0.12800
F540        F  0.27758689  0.95363971  0.28114771    -0.13300
C541        C  0.29627317  0.05810723  0.24939943     0.16400
C542        C  0.29799530  0.07652341  0.23383831     0.25900
C543        C  0.32221940  0.08828152  0.22069421    -0.40400
C544        C  0.34410128  0.08021065  0.22320767     0.32800
C545        C  0.34220317  0.06169330  0.23887323     0.14500
F546        F  0.27298451  0.04740119  0.26204130    -0.12800
F547        F  0.36768529  0.09069407  0.21086188    -0.13300
F548        F  0.27587483  0.08279778  0.23176231    -0.15600
F549        F  0.36364155  0.05451472  0.24129572    -0.14100
F550        F  0.28884204  0.98896230  0.24888790    -0.14100
F551        F  0.33184986  0.03965598  0.32227334    -0.15600
C552        C  0.28717016  0.29066334  0.26354934     0.14500
C553        C  0.30523585  0.27864406  0.26801008     0.01500
C554        C  0.31883798  0.28383288  0.28670304     0.16400
C555        C  0.31445697  0.30087785  0.30085837     0.25900
C556        C  0.29595782  0.31268158  0.29662106    -0.40500
C557        C  0.28243359  0.30745477  0.27775248     0.32900
C558        C  0.31032925  0.26107076  0.25301706     0.01500
F559        F  0.33632046  0.27226700  0.29124464    -0.12800
F560        F  0.26496573  0.31892459  0.27292180    -0.13300
C561        C  0.33125850  0.27527257  0.23802187     0.16400
C562        C  0.33619562  0.25882175  0.22368919     0.25900
C563        C  0.32005920  0.22765921  0.22403778    -0.40400
C564        C  0.29910092  0.21354552  0.23933384     0.32800
C565        C  0.29440558  0.23016858  0.25368572     0.14500
F566        F  0.34696922  0.30520401  0.23730274    -0.12800
F567        F  0.28298495  0.18365178  0.24048185    -0.13300
F568        F  0.35656172  0.27356952  0.20936541    -0.15600
F569        F  0.27406161  0.21609951  0.26816044    -0.14100
F570        F  0.27395965  0.28590636  0.24545702    -0.14100
F571        F  0.32760677  0.30497631  0.31892502    -0.15600
C572        C  0.55615749  0.25301891  0.18021431     0.14500
C573        C  0.54026145  0.26752972  0.18439556     0.01500
C574        C  0.55585042  0.29762635  0.18957150     0.16400
C575        C  0.58671193  0.31314465  0.18988894     0.25900
C576        C  0.60274940  0.29877654  0.18533192    -0.40500
C577        C  0.58694596  0.26830855  0.18086228     0.32900
C578        C  0.50758157  0.25158987  0.18257761     0.01500
F579        F  0.54114071  0.31205125  0.19440634    -0.12800
F580        F  0.60115413  0.25329414  0.17630370    -0.13300
C581        C  0.49014428  0.22447452  0.19235293     0.16400
C582        C  0.45948622  0.20910727  0.18994404     0.25900
C583        C  0.44563155  0.22097553  0.17816838    -0.40400
C584        C  0.46299871  0.24816304  0.16857874     0.32800
C585        C  0.49364894  0.26311051  0.17054381     0.14500
F586        F  0.50274230  0.21305412  0.20448985    -0.12800
F587        F  0.45035480  0.25975764  0.15663943    -0.13300
F588        F  0.44330228  0.18296412  0.19950691    -0.15600
F589        F  0.50979443  0.28845854  0.16014470    -0.14100
F590        F  0.54192330  0.22418993  0.17466425    -0.14100
F591        F  0.60077657  0.34220270  0.19481839    -0.15600
C592        C  0.35908993  0.21427266  0.65655483     0.14500
C593        C  0.33717477  0.19031551  0.66723553     0.01500
C594        C  0.31523169  0.19343970  0.67702536     0.16400
C595        C  0.31525584  0.22021742  0.67625380     0.25900
C596        C  0.33736619  0.24445919  0.66568934    -0.40500
C597        C  0.35926145  0.24111793  0.65579586     0.32900
C598        C  0.33722236  0.16203985  0.66805164     0.01500
F599        F  0.29340547  0.17030788  0.68700994    -0.12800
F600        F  0.38133486  0.26400913  0.64578999    -0.13300
C601        C  0.34194970  0.15158511  0.68616756     0.16400
C602        C  0.34285933  0.12523639  0.68678160     0.25900
C603        C  0.33915117  0.10899969  0.66923306    -0.40400
C604        C  0.33404760  0.11941374  0.65116011     0.32800
C605        C  0.33305283  0.14566213  0.65060280     0.14500
F606        F  0.34644930  0.16734016  0.70316392    -0.12800
F607        F  0.32928888  0.10380571  0.63406839    -0.13300
F608        F  0.34836362  0.11616741  0.70440488    -0.15600
F609        F  0.32761451  0.15495200  0.63304190    -0.14100
F610        F  0.38069817  0.21179415  0.64715185    -0.14100
F611        F  0.29318468  0.22210710  0.68546647    -0.15600
C612        C  0.03156563  0.10566610  0.84488622     0.14500
C613        C  0.06115278  0.12083641  0.85098378     0.01500
C614        C  0.07420182  0.10477214  0.85810849     0.16400
C615        C  0.05823240  0.07395171  0.85857799     0.25900
C616        C  0.02875563  0.05847641  0.85183935    -0.40500
C617        C  0.01545418  0.07483130  0.84539202     0.32900
C618        C  0.07867647  0.15336314  0.84940459     0.01500
F619        F  0.10253913  0.11901233  0.86462749    -0.12800
F620        F  0.98719110  0.06115569  0.83881083    -0.13300
C621        C  0.06982049  0.17126214  0.85942837     0.16400
C622        C  0.08631765  0.20199114  0.85772663     0.25900
C623        C  0.11168245  0.21520470  0.84578043    -0.40400
C624        C  0.12052657  0.19733789  0.83574961     0.32800
C625        C  0.10423041  0.16664973  0.83761773     0.14500
F626        F  0.04520272  0.15895323  0.87086899    -0.12800
F627        F  0.14512847  0.20966335  0.82428913    -0.13300
F628        F  0.07689485  0.21879520  0.86711701    -0.15600
F629        F  0.11300067  0.14983924  0.82753089    -0.14100
F630        F  0.01856328  0.12069669  0.83766888    -0.14100
F631        F  0.07178368  0.05939197  0.86568280    -0.15600
C632        C  0.05543240  0.32047595  0.76352583     0.14500
C633        C  0.05995365  0.31123630  0.74491965     0.01500
C634        C  0.08315056  0.30540260  0.74239045     0.16400
C635        C  0.10130741  0.30813621  0.75846885     0.25900
C636        C  0.09667263  0.31713286  0.77722305    -0.40500
C637        C  0.07382587  0.32366425  0.77955218     0.32900
C638        C  0.03921793  0.30581493  0.72852219     0.01500
F639        F  0.08774012  0.29641903  0.72445834    -0.12800
F640        F  0.06867078  0.33213543  0.79749906    -0.13300
C641        C  0.04725891  0.32533150  0.71241509     0.16400
C642        C  0.02716432  0.32013815  0.69704578     0.25900
C643        C  0.99858434  0.29513679  0.69755500    -0.40400
C644        C  0.99100875  0.27541344  0.71379283     0.32800
C645        C  0.01113803  0.28083922  0.72907849     0.14500
F646        F  0.07449609  0.34961405  0.71171592    -0.12800
F647        F  0.96410014  0.25079492  0.71512089    -0.13300
F648        F  0.03591744  0.33960310  0.68171056    -0.15600
F649        F  0.00329053  0.26150908  0.74446861    -0.14100
F650        F  0.03295869  0.32607267  0.76617073    -0.14100
F651        F  0.12367061  0.30241034  0.75563645    -0.15600
C652        C  0.29853777  0.30982853  0.73121748     0.14500
C653        C  0.28042104  0.32205454  0.72755730     0.01500
C654        C  0.27801273  0.33047977  0.70806482     0.16400
C655        C  0.29344269  0.32652103  0.69243397     0.25900
C656        C  0.31101758  0.31356337  0.69607454    -0.40500
C657        C  0.31361138  0.30554551  0.71565169     0.32900
C658        C  0.26332354  0.32474071  0.74413333     0.01500
F659        F  0.26052870  0.34226548  0.70417375    -0.12800
F660        F  0.33080269  0.29349319  0.71975317    -0.13300
C661        C  0.27786142  0.34213091  0.76082741     0.16400
C662        C  0.26187218  0.34230284  0.77744432     0.25900
C663        C  0.23090230  0.32489878  0.77771921    -0.40400
C664        C  0.21638738  0.30811038  0.76061607     0.32800
C665        C  0.23247493  0.30805977  0.74404844     0.14500
F666        F  0.30769101  0.35882629  0.76106041    -0.12800
F667        F  0.18654260  0.29169690  0.75977263    -0.13300
F668        F  0.27685420  0.35915798  0.79334718    -0.15600
F669        F  0.21791783  0.29090437  0.72813603    -0.14100
F670        F  0.30084131  0.30108508  0.74985013    -0.14100
F671        F  0.29015548  0.33410868  0.67366425    -0.15600
C672        C  0.32935022  0.38357347  0.94038211     0.14500
C673        C  0.30131628  0.35822845  0.94038505     0.01500
C674        C  0.29308090  0.33892282  0.95674086     0.16400
C675        C  0.31197574  0.34533919  0.97310963     0.25900
C676        C  0.33979136  0.37128398  0.97350437    -0.40500
C677        C  0.34842629  0.38994767  0.95660244     0.32900
C678        C  0.28025849  0.35243838  0.92372613     0.01500
F679        F  0.26654930  0.31370443  0.95688131    -0.12800
F680        F  0.37528112  0.41472061  0.95565910    -0.13300
C681        C  0.28809051  0.35109850  0.90388541     0.16400
C682        C  0.26820994  0.34596549  0.88830626     0.25900
C683        C  0.23990560  0.34169501  0.89224959    -0.40400
C684        C  0.23212487  0.34300278  0.91213179     0.32800
C685        C  0.25215618  0.34856642  0.92763747     0.14500
F686        F  0.31486658  0.35429904  0.89959198    -0.12800
F687        F  0.20545574  0.33996748  0.91656243    -0.13300
F688        F  0.27648557  0.34458370  0.86938200    -0.15600
F689        F  0.24437652  0.35104862  0.94650013    -0.14100
F690        F  0.33799010  0.40284853  0.92492329    -0.14100
F691        F  0.30261589  0.32623869  0.98866043    -0.15600
C692        C  0.22651430  0.48691001  0.81566541     0.14500
C693        C  0.25335295  0.50348834  0.82586659     0.01500
C694        C  0.26431290  0.48874738  0.83755370     0.16400
C695        C  0.24890960  0.45798594  0.83886494     0.25900
C696        C  0.22197908  0.44138609  0.82876984    -0.40500
C697        C  0.21080296  0.45614969  0.81726148     0.32900
C698        C  0.26958070  0.53614896  0.82471347     0.01500
F699        F  0.28960288  0.50420260  0.84814360    -0.12800
F700        F  0.18504316  0.44079515  0.80713187    -0.13300
C701        C  0.25554360  0.55213297  0.82985335     0.16400
C702        C  0.27078601  0.58293210  0.82909558     0.25900
C703        C  0.30066978  0.59862013  0.82327157    -0.40400
C704        C  0.31470255  0.58239309  0.81819490     0.32800
C705        C  0.29925340  0.55152000  0.81883868     0.14500
F706        F  0.22712924  0.53789917  0.83614148    -0.12800
F707        F  0.34329588  0.59620089  0.81234090    -0.13300
F708        F  0.25619926  0.59721112  0.83454710    -0.15600
F709        F  0.31321233  0.53657468  0.81341840    -0.14100
F710        F  0.21574341  0.50049285  0.80387217    -0.14100
F711        F  0.25992263  0.44449563  0.85052846    -0.15600
C712        C  0.59408828  0.15519472  0.47381523     0.14500
C713        C  0.58151872  0.17209019  0.48023056     0.01500
C714        C  0.55470378  0.15812059  0.49061710     0.16400
C715        C  0.54110754  0.12793361  0.49495493     0.25900
C716        C  0.55416166  0.11111682  0.48905067    -0.40500
C717        C  0.58072994  0.12511007  0.47830949     0.32900
C718        C  0.59779421  0.20461746  0.47758115     0.01500
F719        F  0.54218535  0.17390724  0.49720718    -0.12800
F720        F  0.59358549  0.10961308  0.47179500    -0.13300
C721        C  0.58520892  0.21930592  0.46754792     0.16400
C722        C  0.60083544  0.25016716  0.46570503     0.25900
C723        C  0.62934600  0.26691961  0.47394811    -0.40400
C724        C  0.64193301  0.25188465  0.48365665     0.32800
C725        C  0.62626249  0.22121073  0.48553911     0.14500
F726        F  0.55791027  0.20375980  0.45937849    -0.12800
F727        F  0.66906982  0.26681374  0.49208625    -0.13300
F728        F  0.58814169  0.26353294  0.45564805    -0.15600
F729        F  0.63860545  0.20768824  0.49581336    -0.14100
F730        F  0.61943457  0.16794336  0.46312868    -0.14100
F731        F  0.51557690  0.11540201  0.50545891    -0.15600
C732        C  0.42409775  0.00630844  0.59262761     0.14500
C733        C  0.41006238  0.02286204  0.58915982     0.01500
C734        C  0.41040694  0.03348400  0.56992137     0.16400
C735        C  0.42482387  0.02799624  0.55441152     0.25900
C736        C  0.43932534  0.01167885  0.55779319    -0.40500
C737        C  0.43857116  0.00073361  0.57714859     0.32900
C738        C  0.39543209  0.02947768  0.60564567     0.01500
F739        F  0.39646232  0.04901059  0.56609520    -0.12800
F740        F  0.45232663  0.98512996  0.58131669    -0.13300
C741        C  0.40512614  0.05885395  0.61116360     0.16400
C742        C  0.39141803  0.06522167  0.62671071     0.25900
C743        C  0.36771531  0.04226572  0.63711153    -0.40400
C744        C  0.35799738  0.01283004  0.63149260     0.32800
C745        C  0.37172396  0.00653475  0.61590034     0.14500
F746        F  0.42837932  0.08141116  0.60175680    -0.12800
F747        F  0.33473498  0.99009803  0.64075698    -0.13300
F748        F  0.40200817  0.09386591  0.63195777    -0.15600
F749        F  0.36148829  0.97799797  0.61053879    -0.14100
F750        F  0.42446217  0.99619187  0.61118887    -0.14100
F751        F  0.42440843  0.03868719  0.53606442    -0.15600
C752        C  0.37818979  0.99772659  0.38048833     0.14500
C753        C  0.36853766  0.98869315  0.40003013     0.01500
C754        C  0.33821973  0.97403672  0.40419951     0.16400
C755        C  0.31775953  0.96734055  0.38884101     0.25900
C756        C  0.32738495  0.97534232  0.36910347    -0.40500
C757        C  0.35786191  0.99098573  0.36514552     0.32900
C758        C  0.38990141  0.99191924  0.41558510     0.01500
F759        F  0.32839667  0.96514584  0.42301915    -0.12800
F760        F  0.36810933  0.99859251  0.34626987    -0.13300
C761        C  0.39242214  0.00721346  0.43330059     0.16400
C762        C  0.41146835  0.00847295  0.44838485     0.25900
C763        C  0.42832580  0.99436416  0.44596722    -0.40400
C764        C  0.42636610  0.97991923  0.42784155     0.32800
C765        C  0.40725428  0.97860963  0.41289712     0.14500
F766        F  0.37648521  0.02099711  0.43596095    -0.12800
F767        F  0.44298663  0.96705053  0.42442322    -0.13300
F768        F  0.41297183  0.02313245  0.46542335    -0.15600
F769        F  0.40512601  0.96359569  0.39590460    -0.14100
F770        F  0.40741093  0.01250896  0.37618823    -0.14100
F771        F  0.28860387  0.95299934  0.39328494    -0.15600
C772        C  0.41644192  0.84089545  0.53120744     0.14500
C773        C  0.40494025  0.82214408  0.51474640     0.01500
C774        C  0.40929131  0.83416857  0.49557658     0.16400
C775        C  0.42530068  0.86476676  0.49282144     0.25900
C776        C  0.43726458  0.88393111  0.50931714    -0.40500
C777        C  0.43239414  0.87147970  0.52859163     0.32900
C778        C  0.38869399  0.78990581  0.51751553     0.01500
F779        F  0.39829291  0.81615334  0.47949171    -0.12800
F780        F  0.44323224  0.88874640  0.54501926    -0.13300
C781        C  0.35787447  0.77444999  0.51737618     0.16400
C782        C  0.34239969  0.74368779  0.51896938     0.25900
C783        C  0.35762296  0.72771045  0.52056732    -0.40400
C784        C  0.38874129  0.74372383  0.52143865     0.32800
C785        C  0.40402957  0.77449678  0.51990196     0.14500
F786        F  0.34275717  0.78922168  0.51549617    -0.12800
F787        F  0.40463176  0.72981525  0.52357827    -0.13300
F788        F  0.31252289  0.72974689  0.51853843    -0.15600
F789        F  0.43393525  0.78929997  0.52033227    -0.14100
F790        F  0.41221015  0.82950340  0.54986355    -0.14100
F791        F  0.42907870  0.87544665  0.47398086    -0.15600
C792        C  0.15105815  0.79734717  0.34379954     0.14500
C793        C  0.15190874  0.82245733  0.33556237     0.01500
C794        C  0.12643545  0.82005632  0.32680714     0.16400
C795        C  0.10025471  0.79295808  0.32660212     0.25900
C796        C  0.09915118  0.76784174  0.33523184    -0.40500
C797        C  0.12487766  0.77024131  0.34368482     0.32900
C798        C  0.17948201  0.85111846  0.33601417     0.01500
F799        F  0.12679416  0.84412794  0.31882252    -0.12800
F800        F  0.12493047  0.74620350  0.35133562    -0.13300
C801        C  0.19342618  0.86485756  0.31820249     0.16400
C802        C  0.21988173  0.89162493  0.31856445     0.25900
C803        C  0.23291498  0.90530008  0.33683535    -0.40400
C804        C  0.21860787  0.89151577  0.35469509     0.32800
C805        C  0.19212478  0.86463098  0.35425029     0.14500
F806        F  0.18174631  0.85194369  0.30041354    -0.12800
F807        F  0.22983241  0.90426158  0.37258696    -0.13300
F808        F  0.23304233  0.90361269  0.30094603    -0.15600
F809        F  0.17851191  0.85193063  0.37162932    -0.14100
F810        F  0.17579770  0.79902611  0.35161071    -0.14100
F811        F  0.07578963  0.79153094  0.31848783    -0.15600
C812        C  0.96350350  0.88946885  0.14348681     0.14500
C813        C  0.94277100  0.87357466  0.15842492     0.01500
C814        C  0.93708103  0.88912617  0.17319918     0.16400
C815        C  0.95158081  0.91995759  0.17291808     0.25900
C816        C  0.97244978  0.93582756  0.15808540    -0.40500
C817        C  0.97844732  0.92036982  0.14343459     0.32900
C818        C  0.92717138  0.84083372  0.15866338     0.01500
F819        F  0.91790622  0.87445645  0.18816560    -0.12800
F820        F  0.99803544  0.93515824  0.12869658    -0.13300
C821        C  0.94314409  0.82578807  0.15916993     0.16400
C822        C  0.92852716  0.79492615  0.15943439     0.25900
C823        C  0.89743122  0.77830246  0.15934317    -0.40400
C824        C  0.88150965  0.79360239  0.15894782     0.32800
C825        C  0.89624917  0.82447449  0.15854749     0.14500
F826        F  0.97303984  0.84104761  0.15984634    -0.12800
F827        F  0.85160239  0.77884400  0.15893954    -0.13300
F828        F  0.94502966  0.78148352  0.15995244    -0.15600
F829        F  0.88023284  0.83843129  0.15776495    -0.14100
F830        F  0.96877025  0.87502436  0.12868385    -0.14100
F831        F  0.94584337  0.93436832  0.18750473    -0.15600
C832        C  0.92503249  0.63145882  0.08604883     0.14500
C833        C  0.95217491  0.65646439  0.08148157     0.01500
C834        C  0.96052183  0.68313118  0.09144886     0.16400
C835        C  0.94199641  0.68470934  0.10583589     0.25900
C836        C  0.91466784  0.65965094  0.11035791    -0.40500
C837        C  0.90648139  0.63298808  0.10030898     0.32900
C838        C  0.97117748  0.65434838  0.06602079     0.01500
F839        F  0.98670154  0.70757231  0.08734981    -0.12800
F840        F  0.88063948  0.60815164  0.10444400    -0.13300
C841        C  0.97776355  0.67106539  0.04849218     0.16400
C842        C  0.99177839  0.66568920  0.03263498     0.25900
C843        C  0.99934320  0.64324180  0.03397358    -0.40400
C844        C  0.99449178  0.62804748  0.05221620     0.32800
C845        C  0.98055563  0.63355957  0.06798991     0.14500
F846        F  0.96913946  0.69150146  0.04627766    -0.12800
F847        F  0.00256348  0.60728274  0.05482789    -0.13300
F848        F  0.99668028  0.68171575  0.01573382    -0.15600
F849        F  0.97549165  0.61796858  0.08512596    -0.14100
F850        F  0.91621036  0.60554719  0.07637597    -0.14100
F851        F  0.95051398  0.71093187  0.11497033    -0.15600
C852        C  0.74187276  0.68641419  0.22740327     0.14500
C853        C  0.74122318  0.67601836  0.24676866     0.01500
C854        C  0.75585041  0.66012246  0.25069099     0.16400
C855        C  0.77178266  0.65566214  0.23566419     0.25900
C856        C  0.77349434  0.66715604  0.21636078    -0.40500
C857        C  0.75777988  0.68208647  0.21238492     0.32900
C858        C  0.72600700  0.68262701  0.26290264     0.01500
F859        F  0.75563438  0.64984550  0.26929617    -0.12800
F860        F  0.75779771  0.69272229  0.19394173    -0.13300
C861        C  0.70310975  0.65975535  0.27374266     0.16400
C862        C  0.68858110  0.66613804  0.28873774     0.25900
C863        C  0.69661426  0.69563242  0.29319049    -0.40400
C864        C  0.71961202  0.71849701  0.28225821     0.32800
C865        C  0.73418196  0.71203240  0.26735431     0.14500
F866        F  0.69427320  0.63112878  0.26946006    -0.12800
F867        F  0.72853889  0.74723132  0.28621869    -0.13300
F868        F  0.66607823  0.64328881  0.29848327    -0.15600
F869        F  0.75671896  0.73461754  0.25744254    -0.14100
F870        F  0.72701233  0.70085955  0.22300736    -0.14100
F871        F  0.78626389  0.64091316  0.24028628    -0.15600
C872        C  0.95131781  0.70573278  0.24204870     0.14500
C873        C  0.94827704  0.68156954  0.25314982     0.01500
C874        C  0.92704146  0.65281566  0.24744638     0.16400
C875        C  0.90904900  0.64832251  0.23087758     0.25900
C876        C  0.91234701  0.67253232  0.21966402    -0.40500
C877        C  0.93373058  0.70125136  0.22534241     0.32900
C878        C  0.96793375  0.68655476  0.27029849     0.01500
F879        F  0.92416244  0.62910233  0.25768637    -0.12800
F880        F  0.93686715  0.72511255  0.21514717    -0.13300
C881        C  0.95638986  0.67656574  0.28941390     0.16400
C882        C  0.97530511  0.68230908  0.30563923     0.25900
C883        C  0.00604253  0.69839440  0.30297750    -0.40400
C884        C  0.01745268  0.70801298  0.28375201     0.32800
C885        C  0.99857465  0.70204688  0.26758990     0.14500
F886        F  0.92683550  0.66215215  0.29247127    -0.12800
F887        F  0.04696303  0.72286109  0.28048832    -0.13300
F888        F  0.96354955  0.67320509  0.32402969    -0.15600
F889        F  0.01024677  0.71127896  0.24918447    -0.14100
F890        F  0.97097505  0.73377599  0.24764931    -0.14100
F891        F  0.88890161  0.62032737  0.22552478    -0.15600
C892        C  0.75065737  0.50379570  0.18342836     0.14500
C893        C  0.74903292  0.48642449  0.16706836     0.01500
C894        C  0.76563241  0.50007237  0.14995708     0.16400
C895        C  0.78312149  0.53086101  0.14907063     0.25900
C896        C  0.78449891  0.54847445  0.16542681    -0.40500
C897        C  0.76820990  0.53445584  0.18268104     0.32900
C898        C  0.73102296  0.45397090  0.16848638     0.01500
F899        F  0.76475708  0.48356834  0.13408171    -0.12800
F900        F  0.76879347  0.55035634  0.19882246    -0.13300
C901        C  0.70038138  0.44020849  0.17104114     0.16400
C902        C  0.68373561  0.40974505  0.17444652     0.25900
C903        C  0.69755979  0.39245582  0.17542126    -0.40400
C904        C  0.72844109  0.40661833  0.17241863     0.32800
C905        C  0.74481256  0.43691865  0.16893967     0.14500
F906        F  0.68663051  0.45642407  0.17036924    -0.12800
F907        F  0.74330551  0.39149317  0.17313904    -0.13300
F908        F  0.65423180  0.39746141  0.17703851    -0.15600
F909        F  0.77447553  0.44984573  0.16675610    -0.14100
F910        F  0.73555981  0.49091015  0.20034938    -0.14100
F911        F  0.79897711  0.54330445  0.13231876    -0.15600
C912        C  0.15228500  0.56034044  0.52175535     0.14500
C913        C  0.16870314  0.59009812  0.51607510     0.01500
C914        C  0.15380081  0.60467883  0.50944327     0.16400
C915        C  0.12300263  0.58951637  0.50804336     0.25900
C916        C  0.10649131  0.55934770  0.51315382    -0.40500
C917        C  0.12156839  0.54508812  0.52026992     0.32900
C918        C  0.20136051  0.60558307  0.51676623     0.01500
F919        F  0.16913350  0.63340437  0.50373431    -0.12800
F920        F  0.10662469  0.51638850  0.52605287    -0.13300
C921        C  0.21681385  0.59452912  0.50600250     0.16400
C922        C  0.24757678  0.60855359  0.50698402     0.25900
C923        C  0.26352638  0.63413079  0.51860746    -0.40400
C924        C  0.24799689  0.64536981  0.52919310     0.32800
C925        C  0.21722314  0.63115291  0.52833821     0.14500
F926        F  0.20207462  0.57045136  0.49415071    -0.12800
F927        F  0.26254698  0.66981068  0.54075421    -0.13300
F928        F  0.26176596  0.59769030  0.49597560    -0.15600
F929        F  0.20286413  0.64203380  0.53915675    -0.14100
F930        F  0.16607291  0.54606684  0.52895614    -0.14100
F931        F  0.10950828  0.60421965  0.50109732    -0.15600
C932        C  0.01814012  0.62333575  0.43679658     0.14500
C933        C  0.01241530  0.61333627  0.41702885     0.01500
C934        C  0.00170024  0.58333590  0.41298773     0.16400
C935        C  0.99711847  0.56361908  0.42846562     0.25900
C936        C  0.00324114  0.57360490  0.44834399    -0.40500
C937        C  0.01366040  0.60371114  0.45232133     0.32900
C938        C  0.01879166  0.63440448  0.40053912     0.01500
F939        F  0.99663818  0.57331445  0.39393567    -0.12800
F940        F  0.01933075  0.61422094  0.47124489    -0.13300
C941        C  0.04767653  0.65739515  0.39741726     0.16400
C942        C  0.05411534  0.67698082  0.38158094     0.25900
C943        C  0.03168273  0.67393562  0.36842388    -0.40400
C944        C  0.00260214  0.65087611  0.37176590     0.32800
C945        C  0.99629345  0.63131918  0.38765744     0.14500
F946        F  0.06988921  0.66041185  0.40945612    -0.12800
F947        F  0.98006336  0.64735672  0.35988753    -0.13300
F948        F  0.08254387  0.69845169  0.37896773    -0.15600
F949        F  0.96808627  0.60952110  0.39063444    -0.14100
F950        F  0.02799193  0.65217919  0.44105727    -0.14100
F951        F  0.98768584  0.53496686  0.42384241    -0.15600
C952        C  0.95900893  0.33682922  0.60241536     0.14500
C953        C  0.97777122  0.36711548  0.60569675     0.01500
C954        C  0.99232019  0.37667824  0.62409392     0.16400
C955        C  0.98801157  0.35623706  0.63904351     0.25900
C956        C  0.96898271  0.32583345  0.63583440    -0.40500
C957        C  0.95473564  0.31638790  0.61725400     0.32900
C958        C  0.98156896  0.38859235  0.58998119     0.01500
F959        F  0.01072949  0.40585465  0.62757556    -0.12800
F960        F  0.93670035  0.28728253  0.61329919    -0.13300
C961        C  0.97387546  0.41036981  0.59361657     0.16400
C962        C  0.97599866  0.42968483  0.57847040     0.25900
C963        C  0.98587129  0.42757676  0.55937787    -0.40400
C964        C  0.99404143  0.40604824  0.55586449     0.32800
C965        C  0.99181740  0.38668318  0.57102913     0.14500
F966        F  0.96357712  0.41245670  0.61172306    -0.12800
F967        F  0.00337174  0.40314654  0.53760433    -0.13300
F968        F  0.96877135  0.45074445  0.58258961    -0.15600
F969        F  0.99965287  0.36598317  0.56722013    -0.14100
F970        F  0.94417876  0.32704616  0.58494134    -0.14100
F971        F  0.00175126  0.36634763  0.65682867    -0.15600
C972        C  0.98213044  0.60878589  0.56904077     0.14500
C973        C  0.97536987  0.59809191  0.58860712     0.01500
C974        C  0.97203225  0.57036782  0.59321815     0.16400
C975        C  0.97527713  0.55345295  0.57841002     0.25900
C976        C  0.98215913  0.56417538  0.55878978    -0.40500
C977        C  0.98572844  0.59206249  0.55426078     0.32900
C978        C  0.97179381  0.61585894  0.60423325     0.01500
F979        F  0.96522172  0.55953542  0.61202559    -0.12800
F980        F  0.99194914  0.60280604  0.53541493    -0.13300
C981        C  0.94915628  0.62272279  0.60284761     0.16400
C982        C  0.94541707  0.63912002  0.61779117     0.25900
C983        C  0.96426476  0.64889167  0.63457353    -0.40400
C984        C  0.98728052  0.64223077  0.63565902     0.32800
C985        C  0.99092502  0.62586488  0.62062786     0.14500
F986        F  0.93024570  0.61299978  0.58715821    -0.12800
F987        F  0.00606723  0.65099696  0.65137810    -0.13300
F988        F  0.92327621  0.64535516  0.61566570    -0.15600
F989        F  0.01331223  0.61986984  0.62201274    -0.14100
F990        F  0.98546919  0.63555957  0.56430794    -0.14100
F991        F  0.97227903  0.52686900  0.58334840    -0.15600
C992        C  0.82895345  0.42997460  0.50658697     0.14500
C993        C  0.81656872  0.41220976  0.48963837     0.01500
C994        C  0.83530993  0.41090435  0.47524961     0.16400
C995        C  0.86587971  0.42674113  0.47783876     0.25900
C996        C  0.87838385  0.44404950  0.49501525    -0.40500
C997        C  0.85957087  0.44566916  0.50930011     0.32900
C998        C  0.78414836  0.39508389  0.48682818     0.01500
F999        F  0.82395595  0.39446336  0.45852549    -0.12800
F1000       F  0.87080850  0.46290130  0.52571178    -0.13300
C1001       C  0.76772462  0.40956477  0.48545817     0.16400
C1002       C  0.73728773  0.39355774  0.48219699     0.25900
C1003       C  0.72239706  0.36245084  0.48020976    -0.40400
C1004       C  0.73911979  0.34803580  0.48180819     0.32800
C1005       C  0.76958651  0.36420962  0.48506406     0.14500
F1006       F  0.78131048  0.43943518  0.48685519    -0.12800
F1007       F  0.72622530  0.31825007  0.48022735    -0.13300
F1008       F  0.72262591  0.40883794  0.48097688    -0.15600
F1009       F  0.78491612  0.34962155  0.48671883    -0.14100
F1010       F  0.81134693  0.43177771  0.52066836    -0.14100
F1011       F  0.88319236  0.42456519  0.46369120    -0.15600
C1012       C  0.53100795  0.53227639  0.02484977     0.14500
C1013       C  0.50911302  0.52737315  0.01083189     0.01500
C1014       C  0.51425516  0.54949887  0.99697022     0.16400
C1015       C  0.54115495  0.57584351  0.99672166     0.25900
C1016       C  0.56368708  0.58068230  0.01041125    -0.40500
C1017       C  0.55796373  0.55865559  0.02473533     0.32900
C1018       C  0.48125206  0.49883423  0.01024617     0.01500
F1019       F  0.49313980  0.54554397  0.98355994    -0.12800
F1020       F  0.57859824  0.56205009  0.03836857    -0.13300
C1021       C  0.46301593  0.48847458  0.02708742     0.16400
C1022       C  0.43707367  0.46112223  0.02660614     0.25900
C1023       C  0.42874739  0.44398043  0.00915131    -0.40400
C1024       C  0.44678660  0.45456640  0.99222537     0.32800
C1025       C  0.47294471  0.48165044  0.99282290     0.14500
F1026       F  0.47012997  0.50509011  0.04388739    -0.12800
F1027       F  0.43965784  0.43817038  0.97532259    -0.13300
F1028       F  0.41973676  0.45171872  0.04303721    -0.15600
F1029       F  0.49059352  0.49076137  0.97653176    -0.14100
F1030       F  0.52670414  0.51099716  0.03822659    -0.14100
F1031       F  0.54499929  0.59635780  0.98283921    -0.15600
C1032       C  0.71791549  0.66341867  0.04336692     0.14500
C1033       C  0.71033563  0.65034419  0.06222659     0.01500
C1034       C  0.68061265  0.63335005  0.06751868     0.16400
C1035       C  0.65853893  0.62918491  0.05404538     0.25900
C1036       C  0.66586655  0.64177744  0.03486866    -0.40500
C1037       C  0.69591090  0.65912510  0.02973261     0.32900
C1038       C  0.73327487  0.65371900  0.07639477     0.01500
F1039       F  0.67301373  0.62090632  0.08586613    -0.12800
F1040       F  0.70414821  0.67130956  0.01135898    -0.13300
C1041       C  0.75023608  0.68045611  0.08651374     0.16400
C1042       C  0.77021685  0.68273043  0.10121203     0.25900
C1043       C  0.77367291  0.65828795  0.10582106    -0.40400
C1044       C  0.75720713  0.63179323  0.09512264     0.32800
C1045       C  0.73708993  0.62954619  0.08060103     0.14500
F1046       F  0.74683078  0.70407428  0.08250977    -0.12800
F1047       F  0.75968942  0.60765387  0.09921208    -0.13300
F1048       F  0.78622001  0.70884729  0.11085706    -0.15600
F1049       F  0.72096259  0.60360546  0.07077881    -0.14100
F1050       F  0.74664647  0.67974244  0.03800546    -0.14100
F1051       F  0.63004672  0.61314515  0.05996723    -0.15600
C1052       C  0.81729170  0.12478872  0.67652817     0.14500
C1053       C  0.82010654  0.14920646  0.66595145     0.01500
C1054       C  0.79603463  0.14669738  0.65510608     0.16400
C1055       C  0.76930177  0.12015067  0.65498585     0.25900
C1056       C  0.76616973  0.09562667  0.66582458    -0.40500
C1057       C  0.79059697  0.09822776  0.67650284     0.32900
C1058       C  0.84825285  0.17728331  0.66617408     0.01500
F1059       F  0.79825598  0.17022996  0.64497835    -0.12800
F1060       F  0.78895393  0.07496316  0.68665244    -0.13300
C1061       C  0.86372431  0.18901669  0.64838933     0.16400
C1062       C  0.89047956  0.21549510  0.64857344     0.25900
C1063       C  0.90226059  0.23049574  0.66658939    -0.40400
C1064       C  0.88675990  0.21871169  0.68440950     0.32800
C1065       C  0.85984700  0.19233371  0.68417625     0.14500
F1066       F  0.85319120  0.17445498  0.63090454    -0.12800
F1067       F  0.89722304  0.23315903  0.70194153    -0.13300
F1068       F  0.90532007  0.22598918  0.63121744    -0.15600
F1069       F  0.84479095  0.18171929  0.70145275    -0.14100
F1070       F  0.84062604  0.12656548  0.68663214    -0.14100
F1071       F  0.74633926  0.11883970  0.64468488    -0.15600
C1072       C  0.58092943  0.99112466  0.58805332     0.14500
C1073       C  0.61127941  0.01055999  0.58630958     0.01500
C1074       C  0.62267056  0.02536079  0.56823484     0.16400
C1075       C  0.60384038  0.02185466  0.55238248     0.25900
C1076       C  0.57310814  0.00346559  0.55435517    -0.40500
C1077       C  0.56201840  0.98743989  0.57225094     0.32900
C1078       C  0.63093876  0.01650017  0.60360904     0.01500
F1079       F  0.65213374  0.04349121  0.56602494    -0.12800
F1080       F  0.53274085  0.96871280  0.57482547    -0.13300
C1081       C  0.63357594  0.99364130  0.61263011     0.16400
C1082       C  0.65271722  0.99966225  0.62874422     0.25900
C1083       C  0.66961538  0.02868604  0.63596550    -0.40400
C1084       C  0.66635620  0.05136816  0.62721567     0.32800
C1085       C  0.64710770  0.04529074  0.61122878     0.14500
F1086       F  0.61822134  0.96565565  0.60547662    -0.12800
F1087       F  0.68137112  0.07936153  0.63440097    -0.13300
F1088       F  0.65556834  0.97733772  0.63675670    -0.15600
F1089       F  0.64391995  0.06747920  0.60331905    -0.14100
F1090       F  0.56940144  0.97661321  0.60540441    -0.14100
F1091       F  0.61580439  0.03684535  0.53526038    -0.15600
C1092       C  0.81054132  0.69408657  0.67744786     0.14500
C1093       C  0.81647256  0.67570263  0.66543704     0.01500
C1094       C  0.79457252  0.65571807  0.65241412     0.16400
C1095       C  0.76718468  0.65421078  0.65134579     0.25900
C1096       C  0.76109394  0.67256322  0.66342398    -0.40500
C1097       C  0.78313868  0.69253242  0.67650473     0.32900
C1098       C  0.84572068  0.67782705  0.66612812     0.01500
F1099       F  0.79957142  0.63727771  0.64092656    -0.12800
F1100       F  0.77856795  0.71119388  0.68806059    -0.13300
C1101       C  0.85691061  0.67345907  0.68408347     0.16400
C1102       C  0.88441603  0.67505811  0.68451286     0.25900
C1103       C  0.90082719  0.68057256  0.66692354    -0.40400
C1104       C  0.88979190  0.68536837  0.64907304     0.32800
C1105       C  0.86257959  0.68419294  0.64870713     0.14500
F1106       F  0.84077379  0.66671209  0.70104505    -0.12800
F1107       F  0.90562280  0.69166963  0.63199493    -0.13300
F1108       F  0.89438355  0.66993939  0.70189657    -0.15600
F1109       F  0.85277892  0.68956331  0.63133907    -0.14100
F1110       F  0.83160665  0.71413476  0.68975385    -0.14100
F1111       F  0.74646277  0.63426698  0.63880907    -0.15600
C1112       C  0.88964777  0.91635764  0.84236425     0.14500
C1113       C  0.87380157  0.93122543  0.83979588     0.01500
C1114       C  0.88895590  0.96211310  0.83868047     0.16400
C1115       C  0.91961466  0.97808376  0.84058947     0.25900
C1116       C  0.93578909  0.96337908  0.84378355    -0.40500
C1117       C  0.92027512  0.93216749  0.84442523     0.32900
C1118       C  0.84132419  0.91453373  0.83918044     0.01500
F1119       F  0.87397747  0.97682203  0.83564925    -0.12800
F1120       F  0.93445302  0.91668589  0.84745412    -0.13300
C1121       C  0.82511642  0.91714100  0.85486939     0.16400
C1122       C  0.79434185  0.90120892  0.85456016     0.25900
C1123       C  0.77924689  0.88270127  0.83834392    -0.40400
C1124       C  0.79566140  0.87987186  0.82273714     0.32800
C1125       C  0.82644949  0.89560574  0.82320973     0.14500
F1126       F  0.83920174  0.93504615  0.87057651    -0.12800
F1127       F  0.78194557  0.86157798  0.80712206    -0.13300
F1128       F  0.77938459  0.90454193  0.86988763    -0.15600
F1129       F  0.84178041  0.89270992  0.80793889    -0.14100
F1130       F  0.87529763  0.88643129  0.84344891    -0.14100
F1131       F  0.93324521  0.00792546  0.83921149    -0.15600
C1132       C  0.64383150  0.72155508  0.75468007     0.14500
C1133       C  0.67085448  0.73041241  0.74521215     0.01500
C1134       C  0.69615402  0.75611543  0.75160887     0.16400
C1135       C  0.69461658  0.77270459  0.76730024     0.25900
C1136       C  0.66767109  0.76387116  0.77699071    -0.40500
C1137       C  0.64224111  0.73810018  0.77054261     0.32900
C1138       C  0.67332212  0.71299308  0.72880332     0.01500
F1139       F  0.72244361  0.76529949  0.74249285    -0.12800
F1140       F  0.61576714  0.72929146  0.77926417    -0.13300
C1141       C  0.65926180  0.71035422  0.71048392     0.16400
C1142       C  0.66530060  0.69762349  0.69411214     0.25900
C1143       C  0.68562729  0.68744419  0.69586979    -0.40400
C1144       C  0.69830417  0.68868990  0.71466134     0.32800
C1145       C  0.69219383  0.70133690  0.73089801     0.14500
F1146       F  0.64102022  0.72164887  0.70815490    -0.12800
F1147       F  0.71710234  0.67812917  0.71736888    -0.13300
F1148       F  0.65253182  0.69686297  0.67635207    -0.15600
F1149       F  0.70542057  0.70300030  0.74864356    -0.14100
F1150       F  0.61913550  0.69672089  0.74872866    -0.14100
F1151       F  0.71971414  0.79718161  0.77321996    -0.15600
C1152       C  0.70797700  0.99424515  0.73370137     0.14500
C1153       C  0.68696891  0.96424596  0.73189358     0.01500
C1154       C  0.67136210  0.95363640  0.71397128     0.16400
C1155       C  0.67698025  0.97270433  0.69792072     0.25900
C1156       C  0.69833587  0.00283426  0.69955395    -0.40500
C1157       C  0.71361509  0.01340528  0.71773203     0.32900
C1158       C  0.68265625  0.94369980  0.74827733     0.01500
F1159       F  0.65079659  0.92466660  0.71198138    -0.12800
F1160       F  0.73402412  0.04232667  0.72019615    -0.13300
C1161       C  0.67354729  0.94746161  0.76717996     0.16400
C1162       C  0.67014248  0.92814026  0.78269798     0.25900
C1163       C  0.67597774  0.90491113  0.77948810    -0.40400
C1164       C  0.68520453  0.90136983  0.76051443     0.32800
C1165       C  0.68849095  0.92057646  0.74509190     0.14500
F1166       F  0.66782362  0.96975250  0.77054564    -0.12800
F1167       F  0.69065644  0.87898696  0.75673279    -0.13300
F1168       F  0.66188984  0.93260771  0.80092315    -0.15600
F1169       F  0.69792989  0.91691215  0.72706672    -0.14100
F1170       F  0.72372575  0.00483444  0.75077500    -0.14100
F1171       F  0.66209738  0.96137816  0.68064299    -0.15600
C1172       C  0.66206772  0.68988462  0.94343160     0.14500
C1173       C  0.64351839  0.70113043  0.93813522     0.01500
C1174       C  0.62025836  0.69638456  0.95088253     0.16400
C1175       C  0.61507486  0.67991643  0.96826772     0.25900
C1176       C  0.63358968  0.66871699  0.97349697    -0.40500
C1177       C  0.65735140  0.67411535  0.96114339     0.32900
C1178       C  0.64848139  0.71823118  0.91956800     0.01500
F1179       F  0.60277154  0.70805234  0.94662242    -0.12800
F1180       F  0.67515408  0.66295547  0.96578724    -0.13300
C1181       C  0.62523390  0.71051241  0.90603361     0.16400
C1182       C  0.62876857  0.72863959  0.88976553     0.25900
C1183       C  0.65577677  0.75469074  0.88662103    -0.40400
C1184       C  0.67960230  0.76133253  0.89945967     0.32800
C1185       C  0.67592296  0.74337515  0.91585265     0.14500
F1186       F  0.59882202  0.68568541  0.90883245    -0.12800
F1187       F  0.70641842  0.78549034  0.89633758    -0.13300
F1188       F  0.60527553  0.72141548  0.87771986    -0.15600
F1189       F  0.69882677  0.75137683  0.92861027    -0.14100
F1190       F  0.68418352  0.69340019  0.93118391    -0.14100
F1191       F  0.59223164  0.67527601  0.98018287    -0.15600
C1192       C  0.43983714  0.74102345  0.81485176     0.14500
C1193       C  0.45662291  0.72807800  0.82064048     0.01500
C1194       C  0.44211317  0.69795468  0.82564320     0.16400
C1195       C  0.41134590  0.68114505  0.82519389     0.25900
C1196       C  0.39431935  0.69418912  0.81985549    -0.40500
C1197       C  0.40907279  0.72431610  0.81439554     0.32900
C1198       C  0.48923617  0.74590116  0.82161824     0.01500
F1199       F  0.45776798  0.68495732  0.83159829    -0.12800
F1200       F  0.39386474  0.73774389  0.80836765    -0.13300
C1201       C  0.50318079  0.77120581  0.83373936     0.16400
C1202       C  0.53394189  0.78707555  0.83539856     0.25900
C1203       C  0.55122565  0.77759040  0.82523795    -0.40400
C1204       C  0.53726484  0.75268253  0.81276698     0.32800
C1205       C  0.50660230  0.73715553  0.81085700     0.14500
F1206       F  0.48696118  0.77993223  0.84454682    -0.12800
F1207       F  0.55336781  0.74360312  0.80215551    -0.13300
F1208       F  0.54672679  0.81093699  0.84761511    -0.15600
F1209       F  0.49381617  0.71360094  0.79837703    -0.14100
F1210       F  0.45327695  0.76987098  0.80940632    -0.14100
F1211       F  0.39836508  0.65232204  0.83060986    -0.15600
C1212       C  0.44036694  0.40651559  0.58067243     0.14500
C1213       C  0.41030562  0.39630323  0.58335858     0.01500
C1214       C  0.39518725  0.40428463  0.56972895     0.16400
C1215       C  0.41004230  0.42258394  0.55357922     0.25900
C1216       C  0.44039395  0.43308024  0.55074481    -0.40500
C1217       C  0.45532219  0.42466513  0.56453810     0.32900
C1218       C  0.39453465  0.37658381  0.60012926     0.01500
F1219       F  0.36599010  0.39437718  0.57214503    -0.12800
F1220       F  0.48440451  0.43373186  0.56244920    -0.13300
C1221       C  0.39562169  0.38817907  0.61913958     0.16400
C1222       C  0.38085289  0.36928773  0.63507982     0.25900
C1223       C  0.36512840  0.33848386  0.63221114    -0.40400
C1224       C  0.36422446  0.32705362  0.61306279     0.32800
C1225       C  0.37874158  0.34598890  0.59716615     0.14500
F1226       F  0.41124043  0.41777930  0.62224774    -0.12800
F1227       F  0.34896970  0.29751789  0.60964301    -0.13300
F1228       F  0.38285743  0.38106080  0.65341457    -0.15600
F1229       F  0.37772686  0.33447643  0.57887445    -0.14100
F1230       F  0.45518506  0.39859333  0.59360895    -0.14100
F1231       F  0.39465427  0.43011322  0.54088069    -0.15600
C1232       C  0.37835330  0.43039715  0.42093051     0.14500
C1233       C  0.38413111  0.41387960  0.40698035     0.01500
C1234       C  0.40910539  0.41078050  0.40947555     0.16400
C1235       C  0.42825209  0.42434190  0.42549567     0.25900
C1236       C  0.42259069  0.44103323  0.43944591    -0.40500
C1237       C  0.39725714  0.44365763  0.43710009     0.32900
C1238       C  0.36370611  0.39933624  0.39011552     0.01500
F1239       F  0.41471025  0.39421633  0.39654429    -0.12800
F1240       F  0.39137127  0.46006660  0.44998665    -0.13300
C1241       C  0.37381530  0.40523266  0.37033622     0.16400
C1242       C  0.35431315  0.39117223  0.35451392     0.25900
C1243       C  0.32438720  0.37140969  0.35826991    -0.40400
C1244       C  0.31433921  0.36565354  0.37803631     0.32800
C1245       C  0.33385084  0.37931956  0.39380370     0.14500
F1246       F  0.40240762  0.42510122  0.36635106    -0.12800
F1247       F  0.28571123  0.34606837  0.38213336    -0.13300
F1248       F  0.36443753  0.39757521  0.33554216    -0.15600
F1249       F  0.32368689  0.37253598  0.41274862    -0.14100
F1250       F  0.35475949  0.43434213  0.41859065    -0.14100
F1251       F  0.45214259  0.42080830  0.42748538    -0.15600
C1252       C  0.60834264  0.61924171  0.56115198     0.14500
C1253       C  0.61606997  0.60535151  0.57592942     0.01500
C1254       C  0.60545248  0.57496459  0.57480845     0.16400
C1255       C  0.58650051  0.55828400  0.55946195     0.25900
C1256       C  0.57755187  0.57172981  0.54485138    -0.40500
C1257       C  0.58921461  0.60261272  0.54569778     0.32900
C1258       C  0.63460862  0.62204723  0.59297590     0.01500
F1259       F  0.61324279  0.56134097  0.58881766    -0.12800
F1260       F  0.58192670  0.61676282  0.53179070    -0.13300
C1261       C  0.62145188  0.62201508  0.61113537     0.16400
C1262       C  0.63878311  0.63478416  0.62807041     0.25900
C1263       C  0.66968254  0.64763724  0.62710655    -0.40400
C1264       C  0.68275110  0.64826990  0.60859944     0.32800
C1265       C  0.66530549  0.63550958  0.59172842     0.14500
F1266       F  0.59167155  0.60868067  0.61257415    -0.12800
F1267       F  0.71243812  0.66103848  0.60676664    -0.13300
F1268       F  0.62512489  0.63327384  0.64554261    -0.15600
F1269       F  0.67830601  0.63543518  0.57428012    -0.14100
F1270       F  0.61896958  0.64881962  0.56189886    -0.14100
F1271       F  0.57668456  0.52882951  0.55921379    -0.15600
C1272       C  0.58226752  0.62156843  0.41935000     0.14500
C1273       C  0.59131680  0.61054787  0.40346914     0.01500
C1274       C  0.58503948  0.58115144  0.40382749     0.16400
C1275       C  0.56970948  0.56285113  0.41980649     0.25900
C1276       C  0.56031942  0.57369270  0.43579473    -0.40500
C1277       C  0.56693871  0.60338225  0.43537570     0.32900
C1278       C  0.60674970  0.62959063  0.38631254     0.01500
F1279       F  0.59317364  0.56995892  0.38842450    -0.12800
F1280       F  0.55818937  0.61483884  0.45026122    -0.13300
C1281       C  0.63546888  0.63608573  0.38143587     0.16400
C1282       C  0.65016472  0.65458503  0.36534922     0.25900
C1283       C  0.63636020  0.66696944  0.35412469    -0.40400
C1284       C  0.60758920  0.66030968  0.35896283     0.32800
C1285       C  0.59281725  0.64158919  0.37484814     0.14500
F1286       F  0.64957198  0.62529724  0.39267537    -0.12800
F1287       F  0.59369540  0.67178598  0.34816827    -0.13300
F1288       F  0.67832161  0.66156535  0.36135835    -0.15600
F1289       F  0.56481532  0.63501673  0.37899914    -0.14100
F1290       F  0.58839214  0.65007640  0.41935035    -0.14100
F1291       F  0.56410252  0.53451787  0.41950532    -0.15600
C1292       C  0.58339725  0.36319619  0.47938957     0.14500
C1293       C  0.59838286  0.39364896  0.47558317     0.01500
C1294       C  0.62781711  0.40748768  0.46935002     0.16400
C1295       C  0.64246420  0.39134907  0.46763206     0.25900
C1296       C  0.62792912  0.36093203  0.47220360    -0.40500
C1297       C  0.59792725  0.34690365  0.47763821     0.32900
C1298       C  0.58347368  0.41112278  0.47841744     0.01500
F1299       F  0.64265061  0.43689593  0.46545176    -0.12800
F1300       F  0.58279044  0.31763952  0.48195250    -0.13300
C1301       C  0.57553927  0.41533609  0.49755859     0.16400
C1302       C  0.56153874  0.43197516  0.50031080     0.25900
C1303       C  0.55496853  0.44457703  0.48385519    -0.40400
C1304       C  0.56335172  0.44045517  0.46467648     0.32800
C1305       C  0.57750023  0.42396562  0.46204561     0.14500
F1306       F  0.58174101  0.40360860  0.51364657    -0.12800
F1307       F  0.55812628  0.45253433  0.44836966    -0.13300
F1308       F  0.55426706  0.43545588  0.51910348    -0.15600
F1309       F  0.58509415  0.42020964  0.44341666    -0.14100
F1310       F  0.55465839  0.34927383  0.48493377    -0.14100
F1311       F  0.67093881  0.40564958  0.46150692    -0.15600
C1312       C  0.36086220  0.58982456  0.50645470     0.14500
C1313       C  0.39095529  0.60414228  0.51134194     0.01500
C1314       C  0.40434376  0.63287905  0.51908373     0.16400
C1315       C  0.38808554  0.64728043  0.52166818     0.25900
C1316       C  0.35797589  0.63335211  0.51632945    -0.40500
C1317       C  0.34451475  0.60422015  0.50888713     0.32900
C1318       C  0.40836987  0.58905827  0.50851226     0.01500
F1319       F  0.43318874  0.64688312  0.52447117    -0.12800
F1320       F  0.31569937  0.58975719  0.50346291    -0.13300
C1321       C  0.43255295  0.60073396  0.49546739     0.16400
C1322       C  0.44902656  0.58649657  0.49286956     0.25900
C1323       C  0.44146323  0.56019552  0.50319456    -0.40400
C1324       C  0.41721769  0.54858172  0.51623723     0.32800
C1325       C  0.40094384  0.56295641  0.51892744     0.14500
F1326       F  0.43979662  0.62560347  0.48490752    -0.12800
F1327       F  0.40967911  0.52364574  0.52679413    -0.13300
F1328       F  0.47174800  0.59790573  0.47976039    -0.15600
F1329       F  0.37822376  0.55169518  0.53203421    -0.14100
F1330       F  0.34743889  0.56205977  0.49884028    -0.14100
F1331       F  0.40190827  0.67473949  0.52974433    -0.15600
C1332       C  0.48431872  0.01408306  0.01755358     0.14500
C1333       C  0.48727848  0.99310455  0.00628071     0.01500
C1334       C  0.46315316  0.97220689  0.99512629     0.16400
C1335       C  0.43682850  0.97300821  0.99458032     0.25900
C1336       C  0.43410959  0.99476814  0.00525299    -0.40500
C1337       C  0.45804403  0.01492108  0.01709799     0.32900
C1338       C  0.51599742  0.99404568  0.00532210     0.01500
F1339       F  0.46515200  0.95099557  0.98471525    -0.12800
F1340       F  0.45664268  0.03634551  0.02765561    -0.13300
C1341       C  0.52960772  0.99159135  0.02270139     0.16400
C1342       C  0.55713424  0.99337003  0.02170528     0.25900
C1343       C  0.57133311  0.99726774  0.00326827    -0.40400
C1344       C  0.55772868  0.99979566  0.98590395     0.32800
C1345       C  0.53036408  0.99833934  0.98694581     0.14500
F1346       F  0.51602210  0.98701261  0.04060187    -0.12800
F1347       F  0.57138840  0.00471292  0.96800788    -0.13300
F1348       F  0.56955127  0.99051367  0.03871779    -0.15600
F1349       F  0.51820464  0.00193269  0.97005579    -0.14100
F1350       F  0.50736311  0.03463658  0.02837635    -0.14100
F1351       F  0.41400270  0.95232835  0.98368797    -0.15600
C1352       C  0.67227441  0.96910778  0.94605369     0.14500
C1353       C  0.64999646  0.94135199  0.93949858     0.01500
C1354       C  0.62241370  0.92793278  0.94892139     0.16400
C1355       C  0.61677320  0.94251883  0.96419970     0.25900
C1356       C  0.63875817  0.97064245  0.97043333    -0.40500
C1357       C  0.66673670  0.98363364  0.96148984     0.32900
C1358       C  0.65483900  0.92679882  0.92225837     0.01500
F1359       F  0.60098950  0.90056689  0.94335177    -0.12800
F1360       F  0.68834956  0.01083395  0.96719178    -0.13300
C1361       C  0.67594453  0.91774318  0.92300056     0.16400
C1362       C  0.67910892  0.90243486  0.90699221     0.25900
C1363       C  0.66109345  0.89586316  0.88990654    -0.40400
C1364       C  0.64071486  0.90609884  0.88903726     0.32800
C1365       C  0.63764082  0.92131765  0.90507274     0.14500
F1366       F  0.69290037  0.92296267  0.93948472    -0.12800
F1367       F  0.62328866  0.90106428  0.87283839    -0.13300
F1368       F  0.69963745  0.89384670  0.90840841    -0.15600
F1369       F  0.61771168  0.93072006  0.90386601    -0.14100
F1370       F  0.69903850  0.98251129  0.93707403    -0.14100
F1371       F  0.59003555  0.92886220  0.97321901    -0.15600
C1372       C  0.03687137  0.48167758  0.99333748     0.14500
C1373       C  0.01633167  0.48695396  0.00323362     0.01500
C1374       C  0.99300177  0.46368720  0.01360253     0.16400
C1375       C  0.99001231  0.43550473  0.01382388     0.25900
C1376       C  0.01013867  0.42999523  0.00346880    -0.40500
C1377       C  0.03378725  0.45349880  0.99339255     0.32900
C1378       C  0.01890758  0.51654778  0.00243027     0.01500
F1379       F  0.97248923  0.46802326  0.02295178    -0.12800
F1380       F  0.05424522  0.44935094  0.98378274    -0.13300
C1381       C  0.01857777  0.52924110  0.98405806     0.16400
C1382       C  0.01990585  0.55666753  0.98328588     0.25900
C1383       C  0.02143944  0.57199986  0.00094564    -0.40400
C1384       C  0.02262090  0.55947388  0.01932452     0.32800
C1385       C  0.02129770  0.53206147  0.02001974     0.14500
F1386       F  0.01597157  0.51457828  0.96681460    -0.12800
F1387       F  0.02538906  0.57379664  0.03673029    -0.13300
F1388       F  0.01869127  0.56759635  0.96520320    -0.15600
F1389       F  0.02261742  0.52073169  0.03793893    -0.14100
F1390       F  0.06011592  0.50394248  0.98372498    -0.14100
F1391       F  0.96671146  0.41336708  0.02346905    -0.15600
C1392       C  0.07688157  0.36403575  0.90224051     0.14500
C1393       C  0.05967865  0.34000950  0.91482743     0.01500
C1394       C  0.05847541  0.31288509  0.91141331     0.16400
C1395       C  0.07575257  0.31037452  0.89656871     0.25900
C1396       C  0.09417786  0.33484751  0.88466348    -0.40500
C1397       C  0.09377410  0.36139191  0.88714878     0.32900
C1398       C  0.04514481  0.34396511  0.93250706     0.01500
F1399       F  0.04094406  0.28895600  0.92274430    -0.12800
F1400       F  0.11110321  0.38535818  0.87578750    -0.13300
C1401       C  0.02566096  0.35503691  0.93060489     0.16400
C1402       C  0.01403231  0.36098292  0.94756060     0.25900
C1403       C  0.02119257  0.35531957  0.96661974    -0.40400
C1404       C  0.03997785  0.34348441  0.96851546     0.32800
C1405       C  0.05210804  0.33814481  0.95161064     0.14500
F1406       F  0.01800742  0.36019180  0.91234169    -0.12800
F1407       F  0.04795949  0.33872519  0.98678357    -0.13300
F1408       F  0.99569049  0.37219233  0.94539013    -0.15600
F1409       F  0.07179706  0.32860795  0.95394159    -0.14100
F1410       F  0.07870417  0.39059704  0.90528999    -0.14100
F1411       F  0.07455081  0.28402579  0.89388249    -0.15600
C1412       C  0.63532309  0.84190605  0.33427676     0.14500
C1413       C  0.65914131  0.84113278  0.32524596     0.01500
C1414       C  0.68252114  0.86722062  0.31746503     0.16400
C1415       C  0.68203085  0.89366954  0.31849908     0.25900
C1416       C  0.65830925  0.89455728  0.32761388    -0.40500
C1417       C  0.63498575  0.86846778  0.33555681     0.32900
C1418       C  0.66028718  0.81344024  0.32453871     0.01500
F1419       F  0.70629165  0.86722263  0.30940259    -0.12800
F1420       F  0.61153355  0.86853657  0.34410775    -0.13300
C1421       C  0.66266288  0.80173930  0.30624658     0.16400
C1422       C  0.66503814  0.77620792  0.30570675     0.25900
C1423       C  0.66479664  0.76184352  0.32348394    -0.40400
C1424       C  0.66238506  0.77370228  0.34178271     0.32800
C1425       C  0.66017025  0.79922794  0.34227362     0.14500
F1426       F  0.66214769  0.81479821  0.28888845    -0.12800
F1427       F  0.66283932  0.76099694  0.35932477    -0.13300
F1428       F  0.66664969  0.76509523  0.28779463    -0.15600
F1429       F  0.65861527  0.81049981  0.36014917    -0.14100
F1430       F  0.61225377  0.81686150  0.34164995    -0.14100
F1431       F  0.70528374  0.91863149  0.31120568    -0.15600
C1432       C  0.61564270  0.99022622  0.38055504     0.14500
C1433       C  0.61136698  0.97426214  0.39822622     0.01500
C1434       C  0.62097557  0.95354381  0.39932164     0.16400
C1435       C  0.63379097  0.94812352  0.38279323     0.25900
C1436       C  0.63709200  0.96325619  0.36472370    -0.40500
C1437       C  0.62839704  0.98486238  0.36397431     0.32900
C1438       C  0.59533384  0.97800124  0.41508440     0.01500
F1439       F  0.61778833  0.93841449  0.41643960    -0.12800
F1440       F  0.63108528  0.00010154  0.34699170    -0.13300
C1441       C  0.56835398  0.95416364  0.42128484     0.16400
C1442       C  0.55227976  0.95774451  0.43654153     0.25900
C1443       C  0.56294759  0.98531020  0.44602593    -0.40400
C1444       C  0.59031890  0.00907735  0.43996755     0.32800
C1445       C  0.60626072  0.00544769  0.42457201     0.14500
F1446       F  0.55716515  0.92750946  0.41216097    -0.12800
F1447       F  0.60131020  0.03609998  0.44849838    -0.13300
F1448       F  0.52629992  0.93407701  0.44206642    -0.15600
F1449       F  0.63240701  0.02875470  0.41889081    -0.14100
F1450       F  0.60626571  0.01016692  0.37906435    -0.14100
F1451       F  0.64296147  0.92805128  0.38458295    -0.15600
C1452       C  0.14024780  0.35396625  0.34583658     0.14500
C1453       C  0.14234634  0.33181423  0.33534185     0.01500
C1454       C  0.11693797  0.30858528  0.32668431     0.16400
C1455       C  0.08996388  0.30788736  0.32804609     0.25900
C1456       C  0.08791320  0.33037963  0.33819765    -0.40500
C1457       C  0.11324925  0.35320406  0.34733955     0.32900
C1458       C  0.17107206  0.33303320  0.33338006     0.01500
F1459       F  0.11822031  0.28639330  0.31706898    -0.12800
F1460       F  0.11222917  0.37549855  0.35701308    -0.13300
C1461       C  0.18677855  0.33347289  0.35043862     0.16400
C1462       C  0.21424280  0.33538898  0.34869856     0.25900
C1463       C  0.22654319  0.33680585  0.32980959    -0.40400
C1464       C  0.21051942  0.33581215  0.31269835     0.32800
C1465       C  0.18305488  0.33407014  0.31448760     0.14500
F1466       F  0.17529225  0.33163674  0.36883505    -0.12800
F1467       F  0.22183693  0.33756439  0.29426138    -0.13300
F1468       F  0.22848490  0.33520812  0.36556180    -0.15600
F1469       F  0.16850248  0.33423924  0.29777738    -0.14100
F1470       F  0.16458427  0.37688520  0.35410129    -0.14100
F1471       F  0.06576830  0.28496547  0.31965061    -0.15600
C1472       C  0.02981985  0.41768559  0.43220733     0.14500
C1473       C  0.00605325  0.40143664  0.41920926     0.01500
C1474       C  0.97961476  0.40172634  0.42199686     0.16400
C1475       C  0.97714332  0.41840919  0.43731910     0.25900
C1476       C  0.00095867  0.43475034  0.45035728    -0.40500
C1477       C  0.02722634  0.43395581  0.44775530     0.32900
C1478       C  0.00930227  0.38491787  0.40247320     0.01500
F1479       F  0.95607085  0.38565705  0.40995961    -0.12800
F1480       F  0.05086863  0.44985279  0.45974561    -0.13300
C1481       C  0.01882837  0.36445688  0.40600821     0.16400
C1482       C  0.02449626  0.35083001  0.39011066     0.25900
C1483       C  0.02008033  0.35694558  0.37045398    -0.40400
C1484       C  0.00925185  0.37635583  0.36692118     0.32800
C1485       C  0.00421367  0.39049722  0.38280359     0.14500
F1486       F  0.02265051  0.35769362  0.42489327    -0.12800
F1487       F  0.00490154  0.38273783  0.34805013    -0.13300
F1488       F  0.03392175  0.33134160  0.39392706    -0.15600
F1489       F  0.99555805  0.41057039  0.37890891    -0.14100
F1490       F  0.05596502  0.41862018  0.42942463    -0.14100
F1491       F  0.95128360  0.41827578  0.43949548    -0.15600
C1492       C  0.68877079  0.06450992  0.05873868     0.14500
C1493       C  0.70730875  0.05360471  0.06451422     0.01500
C1494       C  0.70666132  0.03007567  0.05407595     0.16400
C1495       C  0.68732192  0.01727054  0.03807861     0.25900
C1496       C  0.66836015  0.02790743  0.03236467    -0.40500
C1497       C  0.66946875  0.05183093  0.04276342     0.32900
C1498       C  0.72755355  0.06728195  0.08133501     0.01500
F1499       F  0.72428903  0.01912308  0.05969219    -0.12800
F1500       F  0.65229637  0.06335913  0.03725578    -0.13300
C1501       C  0.71632934  0.06513622  0.10055466     0.16400
C1502       C  0.73520273  0.08067271  0.11622815     0.25900
C1503       C  0.76565642  0.09867128  0.11284872    -0.40400
C1504       C  0.77692637  0.09985360  0.09363512     0.32800
C1505       C  0.75793998  0.08422640  0.07799859     0.14500
F1506       F  0.68698642  0.04826515  0.10404332    -0.12800
F1507       F  0.80607770  0.11722353  0.08972201    -0.13300
F1508       F  0.72361085  0.07816552  0.13466991    -0.15600
F1509       F  0.76901538  0.08669289  0.05939612    -0.14100
F1510       F  0.68969594  0.08774506  0.06847044    -0.14100
F1511       F  0.68649985  0.99388150  0.02865331    -0.15600
C1512       C  0.97049326  0.32223528  0.06893810     0.14500
C1513       C  0.94927390  0.29259013  0.06535952     0.01500
C1514       C  0.94252904  0.28250163  0.04560529     0.16400
C1515       C  0.95627364  0.30193940  0.02971460     0.25900
C1516       C  0.97672068  0.33188269  0.03332433    -0.40500
C1517       C  0.98391474  0.34174693  0.05308740     0.32900
C1518       C  0.93302959  0.27281348  0.08222702     0.01500
F1519       F  0.92174232  0.25412072  0.04169106    -0.12800
F1520       F  0.00430785  0.37023096  0.05707191    -0.13300
C1521       C  0.91706896  0.28054339  0.09531941     0.16400
C1522       C  0.90133001  0.26204512  0.11113414     0.25900
C1523       C  0.90096205  0.23516481  0.11413635    -0.40400
C1524       C  0.91712407  0.22748965  0.10104510     0.32800
C1525       C  0.93302538  0.24617668  0.08525820     0.14500
F1526       F  0.91598989  0.30572223  0.09241927    -0.12800
F1527       F  0.91789255  0.20209005  0.10364195    -0.13300
F1528       F  0.88558025  0.27005372  0.12306649    -0.15600
F1529       F  0.94872286  0.23842716  0.07306933    -0.14100
F1530       F  0.97821590  0.33228711  0.08786284    -0.14100
F1531       F  0.94857035  0.29177246  0.01080838    -0.15600
C1532       C  0.70827991  0.03837833  0.28453687     0.14500
C1533       C  0.70503846  0.02740231  0.26509529     0.01500
C1534       C  0.68781494  0.99701162  0.26161575     0.16400
C1535       C  0.67510673  0.97756594  0.27757293     0.25900
C1536       C  0.67929605  0.98837482  0.29722014    -0.40500
C1537       C  0.69537893  0.01904390  0.30050593     0.32900
C1538       C  0.72337266  0.04713819  0.24907881     0.01500
F1539       F  0.68458990  0.98611555  0.24286863    -0.12800
F1540       F  0.70024447  0.03022870  0.31924802    -0.13300
C1541       C  0.75324705  0.05552708  0.24851686     0.16400
C1542       C  0.77161126  0.07505620  0.23404393     0.25900
C1543       C  0.76045767  0.08694269  0.21985591    -0.40400
C1544       C  0.73004865  0.07762190  0.22009460     0.32800
C1545       C  0.71165887  0.05779886  0.23463713     0.14500
F1546       F  0.76465885  0.04471105  0.26212713    -0.12800
F1547       F  0.71811990  0.08797103  0.20654408    -0.13300
F1548       F  0.80034463  0.08216662  0.23400678    -0.15600
F1549       F  0.68259801  0.04944377  0.23487317    -0.14100
F1550       F  0.72514702  0.06777397  0.28809589    -0.14100
F1551       F  0.65908902  0.94815338  0.27382712    -0.15600
C1552       C  0.93342407  0.27750059  0.23988645     0.14500
C1553       C  0.93772246  0.26420954  0.25667141     0.01500
C1554       C  0.92360774  0.23341408  0.25802926     0.16400
C1555       C  0.90538826  0.21587640  0.24267416     0.25900
C1556       C  0.90088676  0.22897006  0.22561469    -0.40500
C1557       C  0.91507564  0.26008289  0.22447281     0.32900
C1558       C  0.95779413  0.28220338  0.27262261     0.01500
F1559       F  0.92799842  0.22034299  0.27414326    -0.12800
F1560       F  0.91140424  0.27381101  0.20846431    -0.13300
C1561       C  0.94654527  0.28354186  0.29124917     0.16400
C1562       C  0.96562175  0.29736536  0.30720749     0.25900
C1563       C  0.99625952  0.30977215  0.30472272    -0.40400
C1564       C  0.00743783  0.30935769  0.28574091     0.32800
C1565       C  0.98828427  0.29570714  0.26980244     0.14500
F1566       F  0.91700910  0.27064358  0.29407342    -0.12800
F1567       F  0.03687597  0.32189271  0.28261577    -0.13300
F1568       F  0.95396066  0.29717942  0.32527346    -0.15600
F1569       F  0.99939234  0.29452972  0.25179749    -0.14100
F1570       F  0.94695632  0.30736131  0.23848532    -0.14100
F1571       F  0.89241145  0.18610674  0.24458504    -0.15600
C1572       C  0.70542212  0.25940491  0.19310846     0.14500
C1573       C  0.72965417  0.26945019  0.18017919     0.01500
C1574       C  0.73761979  0.29454071  0.16845615     0.16400
C1575       C  0.72163528  0.30931956  0.16955529     0.25900
C1576       C  0.69719890  0.29921343  0.18235534    -0.40500
C1577       C  0.68919844  0.27407975  0.19412023     0.32900
C1578       C  0.74604201  0.25324265  0.17835927     0.01500
F1579       F  0.76038559  0.30424634  0.15544253    -0.12800
F1580       F  0.66615261  0.26412703  0.20690881    -0.13300
C1581       C  0.73124383  0.22346036  0.17264906     0.16400
C1582       C  0.74654496  0.20803796  0.17063966     0.25900
C1583       C  0.77718998  0.22220265  0.17413403    -0.40400
C1584       C  0.79203009  0.25228251  0.17966585     0.32800
C1585       C  0.77656064  0.26757790  0.18178138     0.14500
F1586       F  0.70195601  0.20944386  0.16852236    -0.12800
F1587       F  0.82145259  0.26693128  0.18334622    -0.13300
F1588       F  0.73125364  0.17930560  0.16494664    -0.15600
F1589       F  0.79135128  0.29635771  0.18744939    -0.14100
F1590       F  0.69772808  0.23557749  0.20493184    -0.14100
F1591       F  0.72950462  0.33295780  0.15749723    -0.15600
C1592       C  0.90228643  0.07098778  0.18458392     0.14500
C1593       C  0.92184007  0.07515903  0.16908825     0.01500
C1594       C  0.92634818  0.09529294  0.15384963     0.16400
C1595       C  0.91107952  0.11088499  0.15389298     0.25900
C1596       C  0.89119061  0.10668958  0.16932595    -0.40500
C1597       C  0.88713548  0.08673702  0.18479228     0.32900
C1598       C  0.93738654  0.05825910  0.16854941     0.01500
F1599       F  0.94543108  0.09964140  0.13884445    -0.12800
F1600       F  0.86794454  0.08184525  0.19983047    -0.13300
C1601       C  0.92354964  0.02976195  0.16044138     0.16400
C1602       C  0.93897764  0.01443513  0.15858559     0.25900
C1603       C  0.96858376  0.02753392  0.16480075    -0.40400
C1604       C  0.98207204  0.05593383  0.17341144     0.32800
C1605       C  0.96655089  0.07114405  0.17522822     0.14500
F1606       F  0.89533963  0.01717301  0.15379217    -0.12800
F1607       F  0.01021488  0.06899499  0.18021692    -0.13300
F1608       F  0.92528336  0.98733447  0.14995093    -0.15600
F1609       F  0.98004350  0.09860404  0.18334194    -0.14100
F1610       F  0.89783326  0.05156635  0.19943959    -0.14100
F1611       F  0.91615447  0.13043759  0.13900850    -0.15600
loop_ 
_geom_bond_atom_site_label_1 
_geom_bond_atom_site_label_2 
_geom_bond_distance 
_geom_bond_site_symmetry_2 
_ccdc_geom_bond_type 
Zn1           O5   1.952       .  S
Zn1           O6   2.020       .  S
Zn1          O10   2.005       .  S
Zn1          O17   2.018       .  S
Zn2           O5   1.954       .  S
Zn2           O7   2.013       .  S
Zn2           O9   2.015       .  S
Zn2          O13   2.004       .  S
Zn3           O5   1.942       .  S
Zn3           O8   1.994       .  S
Zn3          O11   2.005       .  S
Zn3          O14   1.996       .  S
Zn4           O5   1.954       .  S
Zn4          O12   2.016       .  S
Zn4          O15   1.992       .  S
Zn4          O16   2.011       .  S
O6           C18   1.274       .  A
O7           C19   1.273       .  A
O8           C20   1.272       .  A
O9           C18   1.273       .  A
O10          C20   1.273       .  A
O11          C19   1.271       .  A
O12          C21   1.272       .  A
O13          C22   1.273       .  A
O14          C21   1.271       .  A
O15          C22   1.272       .  A
O16          C23   1.273       .  A
O17          C23   1.273       .  A
C18        C1523   1.485       .  S
C19        C1596   1.479       .  S
C20        C1556   1.482       .  S
C21        C1543   1.485       .  S
C22        C1503   1.474       .  S
C23        C1583   1.488       .  S
C24        C1563   1.475   1_455  S
C24          N25   1.356       .  A
C24          N29   1.357       .  A
N25          C26   1.356       .  A
C26        C1483   1.470       .  S
C26          N27   1.358       .  A
N27          C28   1.358       .  A
C28        C1456   1.478       .  S
C28          N29   1.356       .  A
C30        C1536   1.476       .  S
C30          N31   1.356       .  A
C30          N35   1.358       .  A
N31          C32   1.356       .  A
C32        C1416   1.475       .  S
C32          N33   1.358       .  A
N33          C34   1.360       .  A
C34        C1436   1.487       .  S
C34          N35   1.359       .  A
C36        C1516   1.480       .  S
C36          N37   1.362       .  A
C36          N41   1.359   1_554  A
N37          C38   1.361   1_655  A
C38        C1376   1.483       .  S
C38          N39   1.356   1_554  A
N39          C40   1.355       .  A
C40        C1403   1.471       .  S
C40          N41   1.358   1_455  A
C42        C1496   1.474       .  S
C42          N43   1.356       .  A
C42          N47   1.357       .  A
N43          C44   1.356   1_544  A
C44        C1356   1.472       .  S
C44          N45   1.359       .  A
N45          C46   1.358   1_556  A
C46        C1343   1.476       .  S
C46          N47   1.356   1_565  A
Zn48         O52   1.961       .  S
Zn48         O53   2.025       .  S
Zn48         O57   2.018       .  S
Zn48         O64   2.027       .  S
Zn49         O52   1.951       .  S
Zn49         O54   1.998       .  S
Zn49         O56   2.001       .  S
Zn49         O60   2.015       .  S
Zn50         O52   1.969       .  S
Zn50         O55   2.035       .  S
Zn50         O58   2.016       .  S
Zn50         O61   2.036       .  S
Zn51         O52   1.945       .  S
Zn51         O59   1.991       .  S
Zn51         O62   2.020       .  S
Zn51         O63   1.997       .  S
O53          C65   1.275       .  A
O54          C66   1.272       .  A
O55          C67   1.275       .  A
O56          C65   1.272       .  A
O57          C67   1.274       .  A
O58          C66   1.274       .  A
O59          C68   1.271       .  A
O60          C69   1.272       .  A
O61          C68   1.276       .  A
O62          C69   1.272       .  A
O63          C70   1.272       .  A
O64          C70   1.275       .  A
C65        C1236   1.480       .  S
C66        C1276   1.484       .  S
C67        C1323   1.484       .  S
C68        C1256   1.490       .  S
C69        C1303   1.491       .  S
C70        C1216   1.488       .  S
Zn71         O75   1.960       .  S
Zn71         O76   2.009       .  S
Zn71         O80   2.018       .  S
Zn71         O87   2.020       .  S
Zn72         O75   1.965       .  S
Zn72         O77   2.013       .  S
Zn72         O79   2.030       .  S
Zn72         O83   2.023       .  S
Zn73         O75   1.954       .  S
Zn73         O78   2.003       .  S
Zn73         O81   2.013       .  S
Zn73         O84   2.021       .  S
Zn74         O75   1.938       .  S
Zn74         O82   1.998       .  S
Zn74         O85   1.980       .  S
Zn74         O86   1.988       .  S
O76          C88   1.273       .  A
O77          C89   1.274       .  A
O78          C90   1.273       .  A
O79          C88   1.275       .  A
O80          C90   1.275       .  A
O81          C89   1.273       .  A
O82          C91   1.270       .  A
O83          C92   1.274       .  A
O84          C91   1.273       .  A
O85          C92   1.270       .  A
O86          C93   1.270       .  A
O87          C93   1.272       .  A
C88        C1203   1.479       .  S
C89        C1363   1.488       .  S
C90        C1183   1.478       .  S
C91        C1123   1.481       .  S
C92        C1163   1.475       .  S
C93        C1136   1.477       .  S
C94        C1263   1.486       .  S
C94          N95   1.359       .  A
C94          N99   1.362       .  A
N95          C96   1.356       .  A
C96        C1096   1.482       .  S
C96          N97   1.353       .  A
N97          C98   1.356       .  A
C98        C1143   1.485       .  S
C98          N99   1.361       .  A
C100       C1083   1.475       .  S
C100        N101   1.358       .  A
C100        N105   1.357       .  A
N101        C102   1.359       .  A
C102       C1156   1.481       .  S
C102        N103   1.356       .  A
N103        C104   1.355       .  A
C104       C1056   1.481       .  S
C104        N105   1.356       .  A
C106       C1176   1.466       .  S
C106        N107   1.354       .  A
C106        N111   1.355   1_556  A
N107        C108   1.356   1_556  A
C108       C1016   1.490       .  S
C108        N109   1.359       .  A
N109        C110   1.360       .  A
C110       C1036   1.484       .  S
C110        N111   1.358       .  A
Zn112       O116   1.951       .  S
Zn112       O117   1.994       .  S
Zn112       O121   2.007       .  S
Zn112       O128   2.010       .  S
Zn113       O116   1.960   1_455  S
Zn113       O118   2.019       .  S
Zn113       O120   2.017       .  S
Zn113       O124   2.021       .  S
Zn114       O116   1.960   1_455  S
Zn114       O119   2.017       .  S
Zn114       O122   2.022       .  S
Zn114       O125   2.012       .  S
Zn115       O116   1.956       .  S
Zn115       O123   2.000       .  S
Zn115       O126   2.011       .  S
Zn115       O127   2.032       .  S
O117        C129   1.271       .  A
O118        C130   1.274       .  A
O119        C131   1.273   1_455  A
O120        C129   1.274   1_455  A
O121        C131   1.272       .  A
O122        C130   1.274       .  A
O123        C132   1.272       .  A
O124        C133   1.274   1_455  A
O125        C132   1.274   1_455  A
O126        C133   1.273       .  A
O127        C134   1.275       .  A
O128        C134   1.272       .  A
C129       C1476   1.478   1_655  S
C130        C916   1.488       .  S
C131        C936   1.484   1_655  S
C132        C976   1.473       .  S
C133        C963   1.480       .  S
C134        C996   1.485       .  S
Zn135       O139   1.961       .  S
Zn135       O140   2.028       .  S
Zn135       O144   2.009       .  S
Zn135       O151   2.012       .  S
Zn136       O139   1.956       .  S
Zn136       O141   2.018       .  S
Zn136       O143   2.017       .  S
Zn136       O147   2.013       .  S
Zn137       O139   1.957       .  S
Zn137       O142   2.006       .  S
Zn137       O145   2.015       .  S
Zn137       O148   2.025       .  S
Zn138       O139   1.954       .  S
Zn138       O146   2.010       .  S
Zn138       O149   2.005       .  S
Zn138       O150   2.016       .  S
O140        C152   1.274       .  A
O141        C153   1.273       .  A
O142        C154   1.273       .  A
O143        C152   1.274       .  A
O144        C154   1.273       .  A
O145        C153   1.273       .  A
O146        C155   1.273       .  A
O147        C156   1.274       .  A
O148        C155   1.274       .  A
O149        C156   1.273       .  A
O150        C157   1.273       .  A
O151        C157   1.273       .  A
C152        C856   1.492       .  S
C153        C823   1.492       .  S
C154        C876   1.472       .  S
C155        C836   1.484       .  S
C156       C1043   1.478       .  S
C157        C896   1.485       .  S
C158       C1283   1.468       .  S
C158        N159   1.351       .  A
C158        N163   1.357       .  A
N159        C160   1.353       .  A
C160       C1423   1.480       .  S
C160        N161   1.361       .  A
N161        C162   1.364       .  A
C162        C863   1.488       .  S
C162        N163   1.361       .  A
C164        C883   1.477       .  S
C164        N165   1.356       .  A
C164        N169   1.359       .  A
N165        C166   1.354       .  A
C166        C796   1.476       .  S
C166        N167   1.357       .  A
N167        C168   1.359       .  A
C168        C943   1.488       .  S
C168        N169   1.361       .  A
Zn170       O174   1.968   1_545  S
Zn170       O175   2.033       .  S
Zn170       O179   2.035       .  S
Zn170       O186   2.040       .  S
Zn171       O174   1.955       .  S
Zn171       O176   2.024       .  S
Zn171       O178   2.015       .  S
Zn171       O182   2.009       .  S
Zn172       O174   1.950       .  S
Zn172       O177   1.995       .  S
Zn172       O180   2.007       .  S
Zn172       O183   2.028       .  S
Zn173       O174   1.953   1_545  S
Zn173       O181   2.013       .  S
Zn173       O184   2.000       .  S
Zn173       O185   1.994       .  S
O175        C187   1.275   1_545  A
O176        C188   1.274       .  A
O177        C189   1.272   1_565  A
O178        C187   1.273       .  A
O179        C189   1.277       .  A
O180        C188   1.272       .  A
O181        C190   1.272       .  A
O182        C191   1.274       .  A
O183        C190   1.274   1_565  A
O184        C191   1.271   1_545  A
O185        C192   1.271       .  A
O186        C192   1.277       .  A
C187       C1443   1.487       .  S
C188        C776   1.490       .  S
C189       C1076   1.489       .  S
C190        C736   1.493       .  S
C191        C763   1.483       .  S
C192        C716   1.485       .  S
Zn193       O197   1.961       .  S
Zn193       O198   2.006       .  S
Zn193       O202   2.006       .  S
Zn193       O209   2.010       .  S
Zn194       O197   1.948       .  S
Zn194       O199   1.993       .  S
Zn194       O201   2.001       .  S
Zn194       O205   2.005       .  S
Zn195       O197   1.957       .  S
Zn195       O200   2.008       .  S
Zn195       O203   2.034       .  S
Zn195       O206   2.031       .  S
Zn196       O197   1.954       .  S
Zn196       O204   2.036       .  S
Zn196       O207   2.019       .  S
Zn196       O208   2.013       .  S
O198        C210   1.272       .  A
O199        C211   1.270       .  A
O200        C212   1.273       .  A
O201        C210   1.271       .  A
O202        C212   1.272       .  A
O203        C211   1.275       .  A
O204        C213   1.277       .  A
O205        C214   1.273       .  A
O206        C213   1.276       .  A
O207        C214   1.274       .  A
O208        C215   1.273       .  A
O209        C215   1.272       .  A
C210        C636   1.473       .  S
C211        C663   1.489       .  S
C212        C696   1.476       .  S
C213        C683   1.489       .  S
C214        C623   1.470       .  S
C215       C1396   1.476       .  S
C216       C1223   1.480       .  S
C216        N217   1.362       .  A
C216        N221   1.359       .  A
N217        C218   1.361       .  A
C218        C656   1.478       .  S
C218        N219   1.357       .  A
N219        C220   1.355       .  A
C220        C596   1.484       .  S
C220        N221   1.356       .  A
C222        C956   1.482       .  S
C222        N223   1.356       .  A
C222        N227   1.360       .  A
N223        C224   1.353       .  A
C224       C1063   1.471       .  S
C224        N225   1.354       .  A
N225        C226   1.358       .  A
C226        C643   1.490       .  S
C226        N227   1.362       .  A
Zn228       O232   1.947       .  S
Zn228       O233   2.004       .  S
Zn228       O237   1.995       .  S
Zn228       O244   1.992       .  S
Zn229       O232   1.956       .  S
Zn229       O234   2.020       .  S
Zn229       O236   2.027       .  S
Zn229       O240   2.022       .  S
Zn230       O232   1.959       .  S
Zn230       O235   2.016       .  S
Zn230       O238   2.014       .  S
Zn230       O241   2.014       .  S
Zn231       O232   1.961       .  S
Zn231       O239   2.018       .  S
Zn231       O242   2.016       .  S
Zn231       O243   2.012       .  S
O233        C245   1.271       .  A
O234        C246   1.275       .  A
O235        C247   1.273       .  A
O236        C245   1.274       .  A
O237        C247   1.271       .  A
O238        C246   1.273       .  A
O239        C248   1.273       .  A
O240        C249   1.274       .  A
O241        C248   1.274       .  A
O242        C249   1.274       .  A
O243        C250   1.273       .  A
O244        C250   1.271       .  A
C245        C563   1.490       .  S
C246        C583   1.478       .  S
C247        C543   1.483       .  S
C248        C496   1.481       .  S
C249        C516   1.485       .  S
C250        C476   1.480       .  S
C251       C1243   1.473       .  S
C251        N252   1.357       .  A
C251        N256   1.354       .  A
N252        C253   1.361       .  A
C253        C556   1.483       .  S
C253        N254   1.362       .  A
N254        C255   1.359       .  A
C255       C1463   1.480       .  S
C255        N256   1.355       .  A
C257        C536   1.474       .  S
C257        N258   1.354       .  A
C257        N262   1.353       .  A
N258        C259   1.356       .  A
C259        C803   1.483       .  S
C259        N260   1.361       .  A
N260        C261   1.361       .  A
C261        C756   1.477       .  S
C261        N262   1.356       .  A
C263        C676   1.498       .  S
C263        N264   1.358       .  A
C263        N268   1.366   1_556  A
N264        C265   1.355   1_556  A
C265       C1023   1.473       .  S
C265        N266   1.354       .  A
N266        C267   1.357       .  A
C267        C523   1.487       .  S
C267        N268   1.365       .  A
Zn269       O273   1.967       .  S
Zn269       O274   2.034       .  S
Zn269       O278   2.019       .  S
Zn269       O285   2.017       .  S
Zn270       O273   1.941       .  S
Zn270       O275   2.009       .  S
Zn270       O277   1.989       .  S
Zn270       O281   2.009       .  S
Zn271       O273   1.962       .  S
Zn271       O276   2.031       .  S
Zn271       O279   2.034       .  S
Zn271       O282   2.016       .  S
Zn272       O273   1.958       .  S
Zn272       O280   2.000       .  S
Zn272       O283   2.021       .  S
Zn272       O284   2.007       .  S
O274        C286   1.275       .  A
O275        C287   1.273       .  A
O276        C288   1.276       .  A
O277        C286   1.271       .  A
O278        C288   1.274       .  A
O279        C287   1.275       .  A
O280        C289   1.272       .  A
O281        C290   1.272       .  A
O282        C289   1.274       .  A
O283        C290   1.272       .  A
O284        C291   1.272       .  A
O285        C291   1.273       .  A
C286        C443   1.484       .  S
C287        C403   1.491       .  S
C288        C363   1.488       .  S
C289        C463   1.478       .  S
C290        C416   1.481       .  S
C291        C383   1.469       .  S
C292        C376   1.492       .  S
C292        N293   1.360       .  A
C292        N297   1.361       .  A
N293        C294   1.359       .  A
C294        C983   1.488       .  S
C294        N295   1.355       .  A
N295        C296   1.353       .  A
C296       C1103   1.473       .  S
C296        N297   1.357       .  A
C298        C356   1.479       .  S
C298        N299   1.360       .  A
C298        N303   1.359       .  A
N299        C300   1.360       .  A
C300        C603   1.481       .  S
C300        N301   1.359       .  A
N301        C302   1.358       .  A
C302        C743   1.485       .  S
C302        N303   1.359       .  A
C304        C423   1.489       .  S
C304        N305   1.361       .  A
C304        N309   1.359       .  A
N305        C306   1.360   1_556  A
C306       C1383   1.492       .  S
C306        N307   1.359       .  A
N307        C308   1.359       .  A
C308        C843   1.493   1_455  S
C308        N309   1.358   1_554  A
C310        C396   1.495       .  S
C310        N311   1.362       .  A
C310        N315   1.360   1_566  A
N311        C312   1.361   1_556  A
C312       C1336   1.487       .  S
C312        N313   1.356   1_565  A
N313        C314   1.355       .  A
C314        C503   1.474       .  S
C314        N315   1.357       .  A
C316        C483   1.481       .  S
C316        N317   1.360   1_545  A
C316        N321   1.356       .  A
N317        C318   1.360   1_455  A
C318        C816   1.474       .  S
C318        N319   1.358       .  A
N319        C320   1.357   1_565  A
C320       C1603   1.479       .  S
C320        N321   1.355   1_655  A
C322        C723   1.490       .  S
C322        N323   1.362       .  A
C322        N327   1.360       .  A
N323        C324   1.360       .  A
C324       C1003   1.497       .  S
C324        N325   1.357       .  A
N325        C326   1.358       .  A
C326       C1296   1.488       .  S
C326        N327   1.360       .  A
C328        C923   1.483       .  S
C328        N329   1.356       .  A
C328        N333   1.362       .  A
N329        C330   1.356       .  A
C330        C783   1.492       .  S
C330        N331   1.358       .  A
N331        C332   1.360       .  A
C332       C1316   1.493       .  S
C332        N333   1.362       .  A
C334       C1116   1.491       .  S
C334        N335   1.358       .  A
C334        N339   1.361   1_565  A
N335        C336   1.357   1_655  A
C336        C456   1.479       .  S
C336        N337   1.356   1_565  A
N337        C338   1.357       .  A
C338        C616   1.488       .  S
C338        N339   1.360   1_455  A
C340       C1196   1.490       .  S
C340        N341   1.356       .  A
C340        N345   1.360       .  A
N341        C342   1.356       .  A
C342        C436   1.490       .  S
C342        N343   1.357       .  A
N343        C344   1.359       .  A
C344        C703   1.491       .  S
C344        N345   1.361       .  A
C346        C576   1.492       .  S
C346        N347   1.366       .  A
C346        N351   1.362       .  A
N347        C348   1.363       .  A
C348        C903   1.493       .  S
C348        N349   1.353       .  A
N349        C350   1.350       .  A
C350       C1576   1.477       .  S
C350        N351   1.356       .  A
C352        C353   1.409       .  A
C352        C357   1.400       .  A
C352        F370   1.358       .  S
C353        C358   1.490       .  S
C353        C354   1.408   1_565  A
C354        C355   1.400       .  A
C354        F359   1.358       .  S
C355        C356   1.405       .  A
C355        F371   1.358       .  S
C356        C357   1.406   1_545  A
C357        F360   1.358       .  S
C358        C361   1.408       .  A
C358        C365   1.407       .  A
C361        C362   1.402       .  A
C361        F366   1.358       .  S
C362        C363   1.411       .  A
C362        F368   1.358       .  S
C363        C364   1.409       .  A
C364        C365   1.398       .  A
C364        F367   1.358       .  S
C365        F369   1.358       .  S
C372        C373   1.399       .  A
C372        C377   1.396   1_455  A
C372        F390   1.358       .  S
C373        C378   1.472       .  S
C373        C374   1.400       .  A
C374        C375   1.399       .  A
C374        F379   1.358       .  S
C375        C376   1.416   1_455  A
C375        F391   1.357       .  S
C376        C377   1.414       .  A
C377        F380   1.357       .  S
C378        C381   1.403       .  A
C378        C385   1.404       .  A
C381        C382   1.396       .  A
C381        F386   1.358       .  S
C382        C383   1.404       .  A
C382        F388   1.358       .  S
C383        C384   1.406       .  A
C384        C385   1.400       .  A
C384        F387   1.358       .  S
C385        F389   1.358       .  S
C392        C393   1.404       .  A
C392        C397   1.400       .  A
C392        F410   1.358       .  S
C393        C398   1.487       .  S
C393        C394   1.406       .  A
C394        C395   1.399       .  A
C394        F399   1.358       .  S
C395        C396   1.412       .  A
C395        F411   1.357       .  S
C396        C397   1.415       .  A
C397        F400   1.358       .  S
C398        C401   1.407       .  A
C398        C405   1.404       .  A
C401        C402   1.403       .  A
C401        F406   1.358       .  S
C402        C403   1.412       .  A
C402        F408   1.358       .  S
C403        C404   1.411       .  A
C404        C405   1.396       .  A
C404        F407   1.358       .  S
C405        F409   1.358       .  S
C412        C413   1.405       .  A
C412        C417   1.402       .  A
C412        F430   1.358       .  S
C413        C418   1.480       .  S
C413        C414   1.404       .  A
C414        C415   1.397       .  A
C414        F419   1.358       .  S
C415        C416   1.408       .  A
C415        F431   1.358       .  S
C416        C417   1.409       .  A
C417        F420   1.358       .  S
C418        C421   1.404       .  A
C418        C425   1.403       .  A
C421        C422   1.400       .  A
C421        F426   1.358       .  S
C422        C423   1.411       .  A
C422        F428   1.357       .  S
C423        C424   1.412       .  A
C424        C425   1.398       .  A
C424        F427   1.357       .  S
C425        F429   1.358       .  S
C432        C433   1.401       .  A
C432        C437   1.395       .  A
C432        F450   1.358       .  S
C433        C438   1.475       .  S
C433        C434   1.401       .  A
C434        C435   1.399       .  A
C434        F439   1.358       .  S
C435        C436   1.415       .  A
C435        F451   1.357       .  S
C436        C437   1.413       .  A
C437        F440   1.357       .  S
C438        C441   1.404       .  A
C438        C445   1.400       .  A
C441        C442   1.401       .  A
C441        F446   1.358       .  S
C442        C443   1.411       .  A
C442        F448   1.358       .  S
C443        C444   1.412       .  A
C444        C445   1.393       .  A
C444        F447   1.358       .  S
C445        F449   1.358       .  S
C452        C453   1.405       .  A
C452        C457   1.396       .  A
C452        F470   1.358       .  S
C453        C458   1.480       .  S
C453        C454   1.406       .  A
C454        C455   1.398       .  A
C454        F459   1.358       .  S
C455        C456   1.408       .  A
C455        F471   1.358   1_455  S
C456        C457   1.409       .  A
C457        F460   1.358   1_565  S
C458        C461   1.406       .  A
C458        C465   1.405       .  A
C461        C462   1.397       .  A
C461        F466   1.358       .  S
C462        C463   1.407       .  A
C462        F468   1.358       .  S
C463        C464   1.409       .  A
C464        C465   1.396       .  A
C464        F467   1.358       .  S
C465        F469   1.358       .  S
C472        C473   1.400       .  A
C472        C477   1.394       .  A
C472        F490   1.358       .  S
C473        C478   1.468       .  S
C473        C474   1.401       .  A
C474        C475   1.398       .  A
C474        F479   1.358       .  S
C475        C476   1.411       .  A
C475        F491   1.358       .  S
C476        C477   1.411       .  A
C477        F480   1.358       .  S
C478        C481   1.399       .  A
C478        C485   1.401       .  A
C481        C482   1.394       .  A
C481        F486   1.358       .  S
C482        C483   1.412       .  A
C482        F488   1.357       .  S
C483        C484   1.409       .  A
C484        C485   1.399       .  A
C484        F487   1.357   1_545  S
C485        F489   1.358       .  S
C492        C493   1.404       .  A
C492        C497   1.396       .  A
C492        F510   1.358       .  S
C493        C498   1.480       .  S
C493        C494   1.405       .  A
C494        C495   1.401       .  A
C494        F499   1.358       .  S
C495        C496   1.409       .  A
C495        F511   1.358       .  S
C496        C497   1.408       .  A
C497        F500   1.358       .  S
C498        C501   1.405       .  A
C498        C505   1.406       .  A
C501        C502   1.396       .  A
C501        F506   1.358       .  S
C502        C503   1.406       .  A
C502        F508   1.358       .  S
C503        C504   1.406       .  A
C504        C505   1.400       .  A
C504        F507   1.358       .  S
C505        F509   1.358       .  S
C512        C513   1.404       .  A
C512        C517   1.401       .  A
C512        F530   1.358       .  S
C513        C518   1.479       .  S
C513        C514   1.402       .  A
C514        C515   1.398       .  A
C514        F519   1.358       .  S
C515        C516   1.410       .  A
C515        F531   1.358       .  S
C516        C517   1.411       .  A
C517        F520   1.358       .  S
C518        C521   1.401       .  A
C518        C525   1.405       .  A
C521        C522   1.398       .  A
C521        F526   1.358       .  S
C522        C523   1.413       .  A
C522        F528   1.358       .  S
C523        C524   1.409       .  A
C524        C525   1.403       .  A
C524        F527   1.357       .  S
C525        F529   1.358       .  S
C532        C533   1.399       .  A
C532        C537   1.394   1_545  A
C532        F550   1.358   1_545  S
C533        C538   1.465       .  S
C533        C534   1.401       .  A
C534        C535   1.396       .  A
C534        F539   1.358       .  S
C535        C536   1.409   1_545  A
C535        F551   1.358       .  S
C536        C537   1.408       .  A
C537        F540   1.357       .  S
C538        C541   1.398       .  A
C538        C545   1.399       .  A
C541        C542   1.393       .  A
C541        F546   1.359       .  S
C542        C543   1.412       .  A
C542        F548   1.358       .  S
C543        C544   1.413       .  A
C544        C545   1.399       .  A
C544        F547   1.358       .  S
C545        F549   1.358       .  S
C552        C553   1.402       .  A
C552        C557   1.400       .  A
C552        F570   1.358       .  S
C553        C558   1.475       .  S
C553        C554   1.401       .  A
C554        C555   1.398       .  A
C554        F559   1.358       .  S
C555        C556   1.411       .  A
C555        F571   1.358       .  S
C556        C557   1.410       .  A
C557        F560   1.358       .  S
C558        C561   1.400       .  A
C558        C565   1.401       .  A
C561        C562   1.398       .  A
C561        F566   1.358       .  S
C562        C563   1.412       .  A
C562        F568   1.357       .  S
C563        C564   1.415       .  A
C564        C565   1.399       .  A
C564        F567   1.358       .  S
C565        F569   1.358       .  S
C572        C573   1.405       .  A
C572        C577   1.398       .  A
C572        F590   1.358       .  S
C573        C578   1.489       .  S
C573        C574   1.407       .  A
C574        C575   1.401       .  A
C574        F579   1.358       .  S
C575        C576   1.411       .  A
C575        F591   1.357       .  S
C576        C577   1.413       .  A
C577        F580   1.358       .  S
C578        C581   1.409       .  A
C578        C585   1.407       .  A
C581        C582   1.401       .  A
C581        F586   1.358       .  S
C582        C583   1.407       .  A
C582        F588   1.358       .  S
C583        C584   1.405       .  A
C584        C585   1.398       .  A
C584        F587   1.358       .  S
C585        F589   1.358       .  S
C592        C593   1.404       .  A
C592        C597   1.398       .  A
C592        F610   1.358       .  S
C593        C598   1.479       .  S
C593        C594   1.403       .  A
C594        C595   1.399       .  A
C594        F599   1.358       .  S
C595        C596   1.411       .  A
C595        F611   1.358       .  S
C596        C597   1.410       .  A
C597        F600   1.358       .  S
C598        C601   1.405       .  A
C598        C605   1.403       .  A
C601        C602   1.401       .  A
C601        F606   1.358       .  S
C602        C603   1.408       .  A
C602        F608   1.358       .  S
C603        C604   1.409       .  A
C604        C605   1.398       .  A
C604        F607   1.358       .  S
C605        F609   1.358       .  S
C612        C613   1.404       .  A
C612        C617   1.398       .  A
C612        F630   1.358       .  S
C613        C618   1.479       .  S
C613        C614   1.403       .  A
C614        C615   1.397       .  A
C614        F619   1.358       .  S
C615        C616   1.412       .  A
C615        F631   1.358       .  S
C616        C617   1.411       .  A
C617        F620   1.356   1_455  S
C618        C621   1.406       .  A
C618        C625   1.406       .  A
C621        C622   1.398       .  A
C621        F626   1.358       .  S
C622        C623   1.405       .  A
C622        F628   1.358       .  S
C623        C624   1.404       .  A
C624        C625   1.397       .  A
C624        F627   1.358       .  S
C625        F629   1.358       .  S
C632        C633   1.403       .  A
C632        C637   1.397       .  A
C632        F650   1.358       .  S
C633        C638   1.470       .  S
C633        C634   1.402       .  A
C634        C635   1.397       .  A
C634        F639   1.358       .  S
C635        C636   1.408       .  A
C635        F651   1.358       .  S
C636        C637   1.406       .  A
C637        F640   1.358       .  S
C638        C641   1.400       .  A
C638        C645   1.398       .  A
C641        C642   1.399       .  A
C641        F646   1.358       .  S
C642        C643   1.414   1_455  A
C642        F648   1.357       .  S
C643        C644   1.415       .  A
C644        C645   1.394   1_655  A
C644        F647   1.358       .  S
C645        F649   1.358       .  S
C652        C653   1.403       .  A
C652        C657   1.395       .  A
C652        F670   1.358       .  S
C653        C658   1.480       .  S
C653        C654   1.407       .  A
C654        C655   1.403       .  A
C654        F659   1.358       .  S
C655        C656   1.408       .  A
C655        F671   1.358       .  S
C656        C657   1.407       .  A
C657        F660   1.358       .  S
C658        C661   1.404       .  A
C658        C665   1.402       .  A
C661        C662   1.400       .  A
C661        F666   1.358       .  S
C662        C663   1.410       .  A
C662        F668   1.357       .  S
C663        C664   1.415       .  A
C664        C665   1.398       .  A
C664        F667   1.358       .  S
C665        F669   1.358       .  S
C672        C673   1.404       .  A
C672        C677   1.400       .  A
C672        F690   1.358       .  S
C673        C678   1.491       .  S
C673        C674   1.407       .  A
C674        C675   1.402       .  A
C674        F679   1.358       .  S
C675        C676   1.412       .  A
C675        F691   1.357       .  S
C676        C677   1.417       .  A
C677        F680   1.358       .  S
C678        C681   1.408       .  A
C678        C685   1.407       .  A
C681        C682   1.403       .  A
C681        F686   1.358       .  S
C682        C683   1.410       .  A
C682        F688   1.358       .  S
C683        C684   1.409       .  A
C684        C685   1.401       .  A
C684        F687   1.358       .  S
C685        F689   1.358       .  S
C692        C693   1.407       .  A
C692        C697   1.398       .  A
C692        F710   1.358       .  S
C693        C698   1.482       .  S
C693        C694   1.405       .  A
C694        C695   1.396       .  A
C694        F699   1.358       .  S
C695        C696   1.407       .  A
C695        F711   1.358       .  S
C696        C697   1.407       .  A
C697        F700   1.358       .  S
C698        C701   1.403       .  A
C698        C705   1.405       .  A
C701        C702   1.396       .  A
C701        F706   1.358       .  S
C702        C703   1.413       .  A
C702        F708   1.357       .  S
C703        C704   1.412       .  A
C704        C705   1.399       .  A
C704        F707   1.357       .  S
C705        F709   1.358       .  S
C712        C713   1.406       .  A
C712        C717   1.399       .  A
C712        F730   1.358       .  S
C713        C718   1.484       .  S
C713        C714   1.405       .  A
C714        C715   1.400       .  A
C714        F719   1.358       .  S
C715        C716   1.412       .  A
C715        F731   1.358       .  S
C716        C717   1.407       .  A
C717        F720   1.358       .  S
C718        C721   1.406       .  A
C718        C725   1.403       .  A
C721        C722   1.404       .  A
C721        F726   1.358       .  S
C722        C723   1.413       .  A
C722        F728   1.358       .  S
C723        C724   1.410       .  A
C724        C725   1.396       .  A
C724        F727   1.357       .  S
C725        F729   1.358       .  S
C732        C733   1.404       .  A
C732        C737   1.401       .  A
C732        F750   1.358   1_545  S
C733        C738   1.483       .  S
C733        C734   1.403       .  A
C734        C735   1.399       .  A
C734        F739   1.358       .  S
C735        C736   1.413       .  A
C735        F751   1.358       .  S
C736        C737   1.413       .  A
C737        F740   1.358   1_545  S
C738        C741   1.405       .  A
C738        C745   1.405       .  A
C741        C742   1.399       .  A
C741        F746   1.358       .  S
C742        C743   1.410       .  A
C742        F748   1.358       .  S
C743        C744   1.409       .  A
C744        C745   1.400       .  A
C744        F747   1.358   1_545  S
C745        F749   1.358   1_545  S
C752        C753   1.403       .  A
C752        C757   1.393       .  A
C752        F770   1.358   1_565  S
C753        C758   1.476       .  S
C753        C754   1.405       .  A
C754        C755   1.399       .  A
C754        F759   1.358       .  S
C755        C756   1.407       .  A
C755        F771   1.358       .  S
C756        C757   1.410       .  A
C757        F760   1.358       .  S
C758        C761   1.403   1_565  A
C758        C765   1.403       .  A
C761        C762   1.399       .  A
C761        F766   1.358       .  S
C762        C763   1.413   1_545  A
C762        F768   1.358       .  S
C763        C764   1.410       .  A
C764        C765   1.393       .  A
C764        F767   1.358       .  S
C765        F769   1.358       .  S
C772        C773   1.399       .  A
C772        C777   1.397       .  A
C772        F790   1.358       .  S
C773        C778   1.472       .  S
C773        C774   1.401       .  A
C774        C775   1.399       .  A
C774        F779   1.358       .  S
C775        C776   1.413       .  A
C775        F791   1.358       .  S
C776        C777   1.414       .  A
C777        F780   1.358       .  S
C778        C781   1.399       .  A
C778        C785   1.400       .  A
C781        C782   1.398       .  A
C781        F786   1.358       .  S
C782        C783   1.416       .  A
C782        F788   1.358       .  S
C783        C784   1.414       .  A
C784        C785   1.398       .  A
C784        F787   1.357       .  S
C785        F789   1.358       .  S
C792        C793   1.403       .  A
C792        C797   1.397       .  A
C792        F810   1.358       .  S
C793        C798   1.475       .  S
C793        C794   1.403       .  A
C794        C795   1.397       .  A
C794        F799   1.358       .  S
C795        C796   1.409       .  A
C795        F811   1.358       .  S
C796        C797   1.407       .  A
C797        F800   1.358       .  S
C798        C801   1.401       .  A
C798        C805   1.404       .  A
C801        C802   1.395       .  A
C801        F806   1.358       .  S
C802        C803   1.413       .  A
C802        F808   1.357       .  S
C803        C804   1.409       .  A
C804        C805   1.399       .  A
C804        F807   1.357       .  S
C805        F809   1.358       .  S
C812        C813   1.408       .  A
C812        C817   1.400       .  A
C812        F830   1.358       .  S
C813        C818   1.484       .  S
C813        C814   1.406       .  A
C814        C815   1.397       .  A
C814        F819   1.358       .  S
C815        C816   1.406       .  A
C815        F831   1.358       .  S
C816        C817   1.405       .  A
C817        F820   1.358       .  S
C818        C821   1.404       .  A
C818        C825   1.405       .  A
C821        C822   1.399       .  A
C821        F826   1.358       .  S
C822        C823   1.413       .  A
C822        F828   1.358       .  S
C823        C824   1.413       .  A
C824        C825   1.399       .  A
C824        F827   1.358       .  S
C825        F829   1.358       .  S
C832        C833   1.405       .  A
C832        C837   1.396       .  A
C832        F850   1.358       .  S
C833        C838   1.481       .  S
C833        C834   1.405       .  A
C834        C835   1.402       .  A
C834        F839   1.358       .  S
C835        C836   1.410       .  A
C835        F851   1.358       .  S
C836        C837   1.409       .  A
C837        F840   1.358       .  S
C838        C841   1.403       .  A
C838        C845   1.402       .  A
C841        C842   1.400       .  A
C841        F846   1.358       .  S
C842        C843   1.414       .  A
C842        F848   1.357       .  S
C843        C844   1.413       .  A
C844        C845   1.397       .  A
C844        F847   1.357   1_655  S
C845        F849   1.358       .  S
C852        C853   1.404       .  A
C852        C857   1.398       .  A
C852        F870   1.358       .  S
C853        C858   1.485       .  S
C853        C854   1.406       .  A
C854        C855   1.402       .  A
C854        F859   1.358       .  S
C855        C856   1.413       .  A
C855        F871   1.358       .  S
C856        C857   1.412       .  A
C857        F860   1.358       .  S
C858        C861   1.404       .  A
C858        C865   1.406       .  A
C861        C862   1.400       .  A
C861        F866   1.358       .  S
C862        C863   1.412       .  A
C862        F868   1.358       .  S
C863        C864   1.410       .  A
C864        C865   1.399       .  A
C864        F867   1.358       .  S
C865        F869   1.358       .  S
C872        C873   1.405       .  A
C872        C877   1.394       .  A
C872        F890   1.358       .  S
C873        C878   1.477       .  S
C873        C874   1.405       .  A
C874        C875   1.399       .  A
C874        F879   1.358       .  S
C875        C876   1.407       .  A
C875        F891   1.358       .  S
C876        C877   1.406       .  A
C877        F880   1.358       .  S
C878        C881   1.406       .  A
C878        C885   1.403       .  A
C881        C882   1.400       .  A
C881        F886   1.358       .  S
C882        C883   1.408   1_655  A
C882        F888   1.358       .  S
C883        C884   1.408       .  A
C884        C885   1.394   1_455  A
C884        F887   1.358       .  S
C885        F889   1.358   1_655  S
C892        C893   1.401       .  A
C892        C897   1.395       .  A
C892        F910   1.358       .  S
C893        C898   1.477       .  S
C893        C894   1.404       .  A
C894        C895   1.401       .  A
C894        F899   1.358       .  S
C895        C896   1.412       .  A
C895        F911   1.358       .  S
C896        C897   1.410       .  A
C897        F900   1.357       .  S
C898        C901   1.404       .  A
C898        C905   1.398       .  A
C901        C902   1.401       .  A
C901        F906   1.358       .  S
C902        C903   1.412       .  A
C902        F908   1.357       .  S
C903        C904   1.418       .  A
C904        C905   1.394       .  A
C904        F907   1.358       .  S
C905        F909   1.358       .  S
C912        C913   1.404       .  A
C912        C917   1.398       .  A
C912        F930   1.358       .  S
C913        C918   1.484       .  S
C913        C914   1.406       .  A
C914        C915   1.401       .  A
C914        F919   1.358       .  S
C915        C916   1.412       .  A
C915        F931   1.358       .  S
C916        C917   1.410       .  A
C917        F920   1.358       .  S
C918        C921   1.407       .  A
C918        C925   1.404       .  A
C921        C922   1.400       .  A
C921        F926   1.358       .  S
C922        C923   1.407       .  A
C922        F928   1.357       .  S
C923        C924   1.410       .  A
C924        C925   1.399       .  A
C924        F927   1.358       .  S
C925        F929   1.358       .  S
C932        C933   1.404       .  A
C932        C937   1.398       .  A
C932        F950   1.358       .  S
C933        C938   1.478       .  S
C933        C934   1.403       .  A
C934        C935   1.398   1_455  A
C934        F939   1.358   1_455  S
C935        C936   1.411   1_655  A
C935        F951   1.358       .  S
C936        C937   1.410       .  A
C937        F940   1.358       .  S
C938        C941   1.402       .  A
C938        C945   1.403   1_455  A
C941        C942   1.396       .  A
C941        F946   1.358       .  S
C942        C943   1.413       .  A
C942        F948   1.357       .  S
C943        C944   1.412       .  A
C944        C945   1.399   1_455  A
C944        F947   1.357   1_455  S
C945        F949   1.358       .  S
C952        C953   1.403       .  A
C952        C957   1.395       .  A
C952        F970   1.358       .  S
C953        C958   1.480       .  S
C953        C954   1.406       .  A
C954        C955   1.400       .  A
C954        F959   1.358   1_655  S
C955        C956   1.409       .  A
C955        F971   1.358   1_655  S
C956        C957   1.410       .  A
C957        F960   1.358       .  S
C958        C961   1.404       .  A
C958        C965   1.406       .  A
C961        C962   1.398       .  A
C961        F966   1.358       .  S
C962        C963   1.409       .  A
C962        F968   1.358       .  S
C963        C964   1.408       .  A
C964        C965   1.399       .  A
C964        F967   1.358   1_655  S
C965        F969   1.358       .  S
C972        C973   1.404       .  A
C972        C977   1.397       .  A
C972        F990   1.358       .  S
C973        C978   1.474       .  S
C973        C974   1.404       .  A
C974        C975   1.397       .  A
C974        F979   1.358       .  S
C975        C976   1.408       .  A
C975        F991   1.358       .  S
C976        C977   1.406       .  A
C977        F980   1.358       .  S
C978        C981   1.401       .  A
C978        C985   1.402       .  A
C981        C982   1.396       .  A
C981        F986   1.358       .  S
C982        C983   1.414       .  A
C982        F988   1.358       .  S
C983        C984   1.412       .  A
C984        C985   1.397       .  A
C984        F987   1.357   1_655  S
C985        F989   1.358   1_655  S
C992        C993   1.406       .  A
C992        C997   1.402       .  A
C992       F1010   1.358       .  S
C993        C998   1.484       .  S
C993        C994   1.404       .  A
C994        C995   1.399       .  A
C994        F999   1.358       .  S
C995        C996   1.410       .  A
C995       F1011   1.358       .  S
C996        C997   1.409       .  A
C997       F1000   1.358       .  S
C998       C1001   1.402       .  A
C998       C1005   1.404       .  A
C1001      C1002   1.399       .  A
C1001      F1006   1.358       .  S
C1002      C1003   1.416       .  A
C1002      F1008   1.357       .  S
C1003      C1004   1.414       .  A
C1004      C1005   1.401       .  A
C1004      F1007   1.357       .  S
C1005      F1009   1.358       .  S
C1012      C1013   1.403       .  A
C1012      C1017   1.398       .  A
C1012      F1030   1.358       .  S
C1013      C1018   1.479       .  S
C1013      C1014   1.402   1_554  A
C1014      C1015   1.396       .  A
C1014      F1019   1.358       .  S
C1015      C1016   1.414   1_556  A
C1015      F1031   1.358       .  S
C1016      C1017   1.413       .  A
C1017      F1020   1.357       .  S
C1018      C1021   1.405       .  A
C1018      C1025   1.406   1_554  A
C1021      C1022   1.398       .  A
C1021      F1026   1.358       .  S
C1022      C1023   1.406       .  A
C1022      F1028   1.358       .  S
C1023      C1024   1.405   1_554  A
C1024      C1025   1.396       .  A
C1024      F1027   1.358       .  S
C1025      F1029   1.358       .  S
C1032      C1033   1.400       .  A
C1032      C1037   1.398       .  A
C1032      F1050   1.358       .  S
C1033      C1038   1.471       .  S
C1033      C1034   1.401       .  A
C1034      C1035   1.395       .  A
C1034      F1039   1.358       .  S
C1035      C1036   1.411       .  A
C1035      F1051   1.358       .  S
C1036      C1037   1.413       .  A
C1037      F1040   1.358       .  S
C1038      C1041   1.402       .  A
C1038      C1045   1.401       .  A
C1041      C1042   1.398       .  A
C1041      F1046   1.358       .  S
C1042      C1043   1.410       .  A
C1042      F1048   1.358       .  S
C1043      C1044   1.409       .  A
C1044      C1045   1.395       .  A
C1044      F1047   1.358       .  S
C1045      F1049   1.358       .  S
C1052      C1053   1.402       .  A
C1052      C1057   1.396       .  A
C1052      F1070   1.358       .  S
C1053      C1058   1.473       .  S
C1053      C1054   1.403       .  A
C1054      C1055   1.396       .  A
C1054      F1059   1.358       .  S
C1055      C1056   1.410       .  A
C1055      F1071   1.357       .  S
C1056      C1057   1.411       .  A
C1057      F1060   1.358       .  S
C1058      C1061   1.403       .  A
C1058      C1065   1.405       .  A
C1061      C1062   1.395       .  A
C1061      F1066   1.358       .  S
C1062      C1063   1.406       .  A
C1062      F1068   1.358       .  S
C1063      C1064   1.406       .  A
C1064      C1065   1.397       .  A
C1064      F1067   1.358       .  S
C1065      F1069   1.358       .  S
C1072      C1073   1.401   1_565  A
C1072      C1077   1.397       .  A
C1072      F1090   1.358       .  S
C1073      C1078   1.478       .  S
C1073      C1074   1.404       .  A
C1074      C1075   1.398       .  A
C1074      F1079   1.358       .  S
C1075      C1076   1.411       .  A
C1075      F1091   1.358       .  S
C1076      C1077   1.415   1_545  A
C1077      F1080   1.358       .  S
C1078      C1081   1.405   1_545  A
C1078      C1085   1.404       .  A
C1081      C1082   1.399       .  A
C1081      F1086   1.358       .  S
C1082      C1083   1.407   1_565  A
C1082      F1088   1.358       .  S
C1083      C1084   1.406       .  A
C1084      C1085   1.395       .  A
C1084      F1087   1.358       .  S
C1085      F1089   1.358       .  S
C1092      C1093   1.403       .  A
C1092      C1097   1.397       .  A
C1092      F1110   1.358       .  S
C1093      C1098   1.479       .  S
C1093      C1094   1.405       .  A
C1094      C1095   1.398       .  A
C1094      F1099   1.358       .  S
C1095      C1096   1.409       .  A
C1095      F1111   1.358       .  S
C1096      C1097   1.411       .  A
C1097      F1100   1.358       .  S
C1098      C1101   1.407       .  A
C1098      C1105   1.404       .  A
C1101      C1102   1.400       .  A
C1101      F1106   1.358       .  S
C1102      C1103   1.406       .  A
C1102      F1108   1.358       .  S
C1103      C1104   1.406       .  A
C1104      C1105   1.395       .  A
C1104      F1107   1.358       .  S
C1105      F1109   1.358       .  S
C1112      C1113   1.400       .  A
C1112      C1117   1.397       .  A
C1112      F1130   1.358       .  S
C1113      C1118   1.475       .  S
C1113      C1114   1.401       .  A
C1114      C1115   1.398       .  A
C1114      F1119   1.358       .  S
C1115      C1116   1.414       .  A
C1115      F1131   1.357   1_565  S
C1116      C1117   1.415       .  A
C1117      F1120   1.357       .  S
C1118      C1121   1.403       .  A
C1118      C1125   1.402       .  A
C1121      C1122   1.398       .  A
C1121      F1126   1.358       .  S
C1122      C1123   1.408       .  A
C1122      F1128   1.358       .  S
C1123      C1124   1.411       .  A
C1124      C1125   1.398       .  A
C1124      F1127   1.358       .  S
C1125      F1129   1.358       .  S
C1132      C1133   1.404       .  A
C1132      C1137   1.401       .  A
C1132      F1150   1.358       .  S
C1133      C1138   1.476       .  S
C1133      C1134   1.403       .  A
C1134      C1135   1.393       .  A
C1134      F1139   1.358       .  S
C1135      C1136   1.408       .  A
C1135      F1151   1.358       .  S
C1136      C1137   1.409       .  A
C1137      F1140   1.358       .  S
C1138      C1141   1.404       .  A
C1138      C1145   1.401       .  A
C1141      C1142   1.401       .  A
C1141      F1146   1.358       .  S
C1142      C1143   1.411       .  A
C1142      F1148   1.357       .  S
C1143      C1144   1.412       .  A
C1144      C1145   1.393       .  A
C1144      F1147   1.358       .  S
C1145      F1149   1.358       .  S
C1152      C1153   1.401       .  A
C1152      C1157   1.395   1_565  A
C1152      F1170   1.358   1_565  S
C1153      C1158   1.474       .  S
C1153      C1154   1.404       .  A
C1154      C1155   1.396       .  A
C1154      F1159   1.358       .  S
C1155      C1156   1.410   1_565  A
C1155      F1171   1.358       .  S
C1156      C1157   1.412       .  A
C1157      F1160   1.358       .  S
C1158      C1161   1.406       .  A
C1158      C1165   1.402       .  A
C1161      C1162   1.399       .  A
C1161      F1166   1.358       .  S
C1162      C1163   1.407       .  A
C1162      F1168   1.358       .  S
C1163      C1164   1.409       .  A
C1164      C1165   1.392       .  A
C1164      F1167   1.358       .  S
C1165      F1169   1.358       .  S
C1172      C1173   1.407       .  A
C1172      C1177   1.398       .  A
C1172      F1190   1.358       .  S
C1173      C1178   1.480       .  S
C1173      C1174   1.408       .  A
C1174      C1175   1.395       .  A
C1174      F1179   1.358       .  S
C1175      C1176   1.402       .  A
C1175      F1191   1.358       .  S
C1176      C1177   1.404       .  A
C1177      F1180   1.358       .  S
C1178      C1181   1.406       .  A
C1178      C1185   1.405       .  A
C1181      C1182   1.397       .  A
C1181      F1186   1.358       .  S
C1182      C1183   1.407       .  A
C1182      F1188   1.358       .  S
C1183      C1184   1.409       .  A
C1184      C1185   1.396       .  A
C1184      F1187   1.358       .  S
C1185      F1189   1.358       .  S
C1192      C1193   1.403       .  A
C1192      C1197   1.399       .  A
C1192      F1210   1.358       .  S
C1193      C1198   1.484       .  S
C1193      C1194   1.406       .  A
C1194      C1195   1.399       .  A
C1194      F1199   1.358       .  S
C1195      C1196   1.410       .  A
C1195      F1211   1.357       .  S
C1196      C1197   1.413       .  A
C1197      F1200   1.358       .  S
C1198      C1201   1.408       .  A
C1198      C1205   1.405       .  A
C1201      C1202   1.401       .  A
C1201      F1206   1.358       .  S
C1202      C1203   1.407       .  A
C1202      F1208   1.358       .  S
C1203      C1204   1.408       .  A
C1204      C1205   1.398       .  A
C1204      F1207   1.358       .  S
C1205      F1209   1.358       .  S
C1212      C1213   1.399       .  A
C1212      C1217   1.397       .  A
C1212      F1230   1.358       .  S
C1213      C1218   1.473       .  S
C1213      C1214   1.401       .  A
C1214      C1215   1.399       .  A
C1214      F1219   1.358       .  S
C1215      C1216   1.412       .  A
C1215      F1231   1.358       .  S
C1216      C1217   1.414       .  A
C1217      F1220   1.358       .  S
C1218      C1221   1.403       .  A
C1218      C1225   1.400       .  A
C1221      C1222   1.401       .  A
C1221      F1226   1.358       .  S
C1222      C1223   1.409       .  A
C1222      F1228   1.358       .  S
C1223      C1224   1.410       .  A
C1224      C1225   1.397       .  A
C1224      F1227   1.358       .  S
C1225      F1229   1.358       .  S
C1232      C1233   1.406       .  A
C1232      C1237   1.398       .  A
C1232      F1250   1.358       .  S
C1233      C1238   1.480       .  S
C1233      C1234   1.404       .  A
C1234      C1235   1.398       .  A
C1234      F1239   1.358       .  S
C1235      C1236   1.409       .  A
C1235      F1251   1.358       .  S
C1236      C1237   1.408       .  A
C1237      F1240   1.358       .  S
C1238      C1241   1.408       .  A
C1238      C1245   1.404       .  A
C1241      C1242   1.401       .  A
C1241      F1246   1.358       .  S
C1242      C1243   1.405       .  A
C1242      F1248   1.358       .  S
C1243      C1244   1.406       .  A
C1244      C1245   1.395       .  A
C1244      F1247   1.358       .  S
C1245      F1249   1.358       .  S
C1252      C1253   1.402       .  A
C1252      C1257   1.402       .  A
C1252      F1270   1.358       .  S
C1253      C1258   1.473       .  S
C1253      C1254   1.398       .  A
C1254      C1255   1.394       .  A
C1254      F1259   1.358       .  S
C1255      C1256   1.414       .  A
C1255      F1271   1.358       .  S
C1256      C1257   1.413       .  A
C1257      F1260   1.358       .  S
C1258      C1261   1.402       .  A
C1258      C1265   1.400       .  A
C1261      C1262   1.399       .  A
C1261      F1266   1.358       .  S
C1262      C1263   1.411       .  A
C1262      F1268   1.358       .  S
C1263      C1264   1.413       .  A
C1264      C1265   1.398       .  A
C1264      F1267   1.358       .  S
C1265      F1269   1.358       .  S
C1272      C1273   1.403       .  A
C1272      C1277   1.396       .  A
C1272      F1290   1.358       .  S
C1273      C1278   1.474       .  S
C1273      C1274   1.401       .  A
C1274      C1275   1.396       .  A
C1274      F1279   1.358       .  S
C1275      C1276   1.413       .  A
C1275      F1291   1.358       .  S
C1276      C1277   1.411       .  A
C1277      F1280   1.358       .  S
C1278      C1281   1.406       .  A
C1278      C1285   1.403       .  A
C1281      C1282   1.399       .  A
C1281      F1286   1.358       .  S
C1282      C1283   1.404       .  A
C1282      F1288   1.358       .  S
C1283      C1284   1.405       .  A
C1284      C1285   1.394       .  A
C1284      F1287   1.358       .  S
C1285      F1289   1.358       .  S
C1292      C1293   1.403       .  A
C1292      C1297   1.400       .  A
C1292      F1310   1.358       .  S
C1293      C1298   1.479       .  S
C1293      C1294   1.402       .  A
C1294      C1295   1.398       .  A
C1294      F1299   1.358       .  S
C1295      C1296   1.412       .  A
C1295      F1311   1.358       .  S
C1296      C1297   1.412       .  A
C1297      F1300   1.358       .  S
C1298      C1301   1.403       .  A
C1298      C1305   1.401       .  A
C1301      C1302   1.400       .  A
C1301      F1306   1.358       .  S
C1302      C1303   1.413       .  A
C1302      F1308   1.358       .  S
C1303      C1304   1.413       .  A
C1304      C1305   1.399       .  A
C1304      F1307   1.358       .  S
C1305      F1309   1.358       .  S
C1312      C1313   1.405       .  A
C1312      C1317   1.402       .  A
C1312      F1330   1.358       .  S
C1313      C1318   1.484       .  S
C1313      C1314   1.402       .  A
C1314      C1315   1.399       .  A
C1314      F1319   1.358       .  S
C1315      C1316   1.414       .  A
C1315      F1331   1.357       .  S
C1316      C1317   1.412       .  A
C1317      F1320   1.357       .  S
C1318      C1321   1.407       .  A
C1318      C1325   1.404       .  A
C1321      C1322   1.402       .  A
C1321      F1326   1.358       .  S
C1322      C1323   1.408       .  A
C1322      F1328   1.358       .  S
C1323      C1324   1.409       .  A
C1324      C1325   1.400       .  A
C1324      F1327   1.358       .  S
C1325      F1329   1.358       .  S
C1332      C1333   1.403   1_545  A
C1332      C1337   1.398       .  A
C1332      F1350   1.358       .  S
C1333      C1338   1.481       .  S
C1333      C1334   1.405   1_554  A
C1334      C1335   1.399       .  A
C1334      F1339   1.358       .  S
C1335      C1336   1.410   1_556  A
C1335      F1351   1.357       .  S
C1336      C1337   1.413   1_565  A
C1337      F1340   1.358       .  S
C1338      C1341   1.405       .  A
C1338      C1345   1.406   1_554  A
C1341      C1342   1.399       .  A
C1341      F1346   1.358       .  S
C1342      C1343   1.408       .  A
C1342      F1348   1.358       .  S
C1343      C1344   1.406   1_554  A
C1344      C1345   1.398       .  A
C1344      F1347   1.358   1_565  S
C1345      F1349   1.358   1_565  S
C1352      C1353   1.404       .  A
C1352      C1357   1.399       .  A
C1352      F1370   1.358       .  S
C1353      C1358   1.476       .  S
C1353      C1354   1.405       .  A
C1354      C1355   1.396       .  A
C1354      F1359   1.358       .  S
C1355      C1356   1.405       .  A
C1355      F1371   1.358       .  S
C1356      C1357   1.407       .  A
C1357      F1360   1.358   1_565  S
C1358      C1361   1.402       .  A
C1358      C1365   1.402       .  A
C1361      C1362   1.399       .  A
C1361      F1366   1.358       .  S
C1362      C1363   1.414       .  A
C1362      F1368   1.358       .  S
C1363      C1364   1.412       .  A
C1364      C1365   1.396       .  A
C1364      F1367   1.358       .  S
C1365      F1369   1.358       .  S
C1372      C1373   1.404   1_556  A
C1372      C1377   1.398       .  A
C1372      F1390   1.358       .  S
C1373      C1378   1.484       .  S
C1373      C1374   1.407   1_455  A
C1374      C1375   1.401       .  A
C1374      F1379   1.358       .  S
C1375      C1376   1.408   1_655  A
C1375      F1391   1.358       .  S
C1376      C1377   1.410   1_554  A
C1377      F1380   1.358       .  S
C1378      C1381   1.405   1_554  A
C1378      C1385   1.403       .  A
C1381      C1382   1.400       .  A
C1381      F1386   1.358       .  S
C1382      C1383   1.412   1_556  A
C1382      F1388   1.357       .  S
C1383      C1384   1.413       .  A
C1384      C1385   1.399       .  A
C1384      F1387   1.357       .  S
C1385      F1389   1.358       .  S
C1392      C1393   1.406       .  A
C1392      C1397   1.398       .  A
C1392      F1410   1.358       .  S
C1393      C1398   1.481       .  S
C1393      C1394   1.405       .  A
C1394      C1395   1.397       .  A
C1394      F1399   1.358       .  S
C1395      C1396   1.407       .  A
C1395      F1411   1.358       .  S
C1396      C1397   1.407       .  A
C1397      F1400   1.358       .  S
C1398      C1401   1.406       .  A
C1398      C1405   1.407       .  A
C1401      C1402   1.399       .  A
C1401      F1406   1.358       .  S
C1402      C1403   1.406       .  A
C1402      F1408   1.358   1_455  S
C1403      C1404   1.403       .  A
C1404      C1405   1.397       .  A
C1404      F1407   1.358       .  S
C1405      F1409   1.358       .  S
C1412      C1413   1.406       .  A
C1412      C1417   1.399       .  A
C1412      F1430   1.358       .  S
C1413      C1418   1.478       .  S
C1413      C1414   1.403       .  A
C1414      C1415   1.396       .  A
C1414      F1419   1.358       .  S
C1415      C1416   1.407       .  A
C1415      F1431   1.358       .  S
C1416      C1417   1.406       .  A
C1417      F1420   1.358       .  S
C1418      C1421   1.406       .  A
C1418      C1425   1.402       .  A
C1421      C1422   1.400       .  A
C1421      F1426   1.358       .  S
C1422      C1423   1.407       .  A
C1422      F1428   1.357       .  S
C1423      C1424   1.411       .  A
C1424      C1425   1.395       .  A
C1424      F1427   1.358       .  S
C1425      F1429   1.358       .  S
C1432      C1433   1.403       .  A
C1432      C1437   1.398       .  A
C1432      F1450   1.358   1_565  S
C1433      C1438   1.481       .  S
C1433      C1434   1.404       .  A
C1434      C1435   1.399       .  A
C1434      F1439   1.358       .  S
C1435      C1436   1.412       .  A
C1435      F1451   1.358       .  S
C1436      C1437   1.412       .  A
C1437      F1440   1.358   1_565  S
C1438      C1441   1.404       .  A
C1438      C1445   1.404   1_565  A
C1441      C1442   1.398       .  A
C1441      F1446   1.358       .  S
C1442      C1443   1.411       .  A
C1442      F1448   1.358       .  S
C1443      C1444   1.411   1_565  A
C1444      C1445   1.401       .  A
C1444      F1447   1.358       .  S
C1445      F1449   1.358       .  S
C1452      C1453   1.406       .  A
C1452      C1457   1.398       .  A
C1452      F1470   1.358       .  S
C1453      C1458   1.479       .  S
C1453      C1454   1.404       .  A
C1454      C1455   1.397       .  A
C1454      F1459   1.358       .  S
C1455      C1456   1.408       .  A
C1455      F1471   1.358       .  S
C1456      C1457   1.408       .  A
C1457      F1460   1.358       .  S
C1458      C1461   1.403       .  A
C1458      C1465   1.406       .  A
C1461      C1462   1.395       .  A
C1461      F1466   1.358       .  S
C1462      C1463   1.410       .  A
C1462      F1468   1.358       .  S
C1463      C1464   1.407       .  A
C1464      C1465   1.400       .  A
C1464      F1467   1.358       .  S
C1465      F1469   1.358       .  S
C1472      C1473   1.406       .  A
C1472      C1477   1.396       .  A
C1472      F1490   1.358       .  S
C1473      C1478   1.479       .  S
C1473      C1474   1.404   1_455  A
C1474      C1475   1.396       .  A
C1474      F1479   1.358       .  S
C1475      C1476   1.410   1_655  A
C1475      F1491   1.358       .  S
C1476      C1477   1.407       .  A
C1477      F1480   1.358       .  S
C1478      C1481   1.406       .  A
C1478      C1485   1.406       .  A
C1481      C1482   1.396       .  A
C1481      F1486   1.358       .  S
C1482      C1483   1.404       .  A
C1482      F1488   1.358       .  S
C1483      C1484   1.406       .  A
C1484      C1485   1.396       .  A
C1484      F1487   1.358       .  S
C1485      F1489   1.358   1_455  S
C1492      C1493   1.402       .  A
C1492      C1497   1.394       .  A
C1492      F1510   1.358       .  S
C1493      C1498   1.467       .  S
C1493      C1494   1.401       .  A
C1494      C1495   1.396       .  A
C1494      F1499   1.358       .  S
C1495      C1496   1.410       .  A
C1495      F1511   1.358   1_545  S
C1496      C1497   1.408       .  A
C1497      F1500   1.358       .  S
C1498      C1501   1.401       .  A
C1498      C1505   1.401       .  A
C1501      C1502   1.394       .  A
C1501      F1506   1.358       .  S
C1502      C1503   1.409       .  A
C1502      F1508   1.358       .  S
C1503      C1504   1.409       .  A
C1504      C1505   1.395       .  A
C1504      F1507   1.358       .  S
C1505      F1509   1.358       .  S
C1512      C1513   1.406       .  A
C1512      C1517   1.399       .  A
C1512      F1530   1.358       .  S
C1513      C1518   1.484       .  S
C1513      C1514   1.406       .  A
C1514      C1515   1.401       .  A
C1514      F1519   1.358       .  S
C1515      C1516   1.408       .  A
C1515      F1531   1.358       .  S
C1516      C1517   1.406       .  A
C1517      F1520   1.358   1_655  S
C1518      C1521   1.405       .  A
C1518      C1525   1.406       .  A
C1521      C1522   1.397       .  A
C1521      F1526   1.358       .  S
C1522      C1523   1.409       .  A
C1522      F1528   1.358       .  S
C1523      C1524   1.411       .  A
C1524      C1525   1.402       .  A
C1524      F1527   1.358       .  S
C1525      F1529   1.358       .  S
C1532      C1533   1.403       .  A
C1532      C1537   1.397       .  A
C1532      F1550   1.358       .  S
C1533      C1538   1.470       .  S
C1533      C1534   1.401   1_545  A
C1534      C1535   1.398       .  A
C1534      F1539   1.358       .  S
C1535      C1536   1.409       .  A
C1535      F1551   1.358       .  S
C1536      C1537   1.407   1_565  A
C1537      F1540   1.358       .  S
C1538      C1541   1.399       .  A
C1538      C1545   1.401       .  A
C1541      C1542   1.392       .  A
C1541      F1546   1.358       .  S
C1542      C1543   1.412       .  A
C1542      F1548   1.358       .  S
C1543      C1544   1.414       .  A
C1544      C1545   1.402       .  A
C1544      F1547   1.358       .  S
C1545      F1549   1.358       .  S
C1552      C1553   1.399       .  A
C1552      C1557   1.396       .  A
C1552      F1570   1.358       .  S
C1553      C1558   1.466       .  S
C1553      C1554   1.399       .  A
C1554      C1555   1.393       .  A
C1554      F1559   1.358       .  S
C1555      C1556   1.413       .  A
C1555      F1571   1.358       .  S
C1556      C1557   1.413       .  A
C1557      F1560   1.358       .  S
C1558      C1561   1.401       .  A
C1558      C1565   1.400       .  A
C1561      C1562   1.395       .  A
C1561      F1566   1.358       .  S
C1562      C1563   1.409       .  A
C1562      F1568   1.358       .  S
C1563      C1564   1.409   1_655  A
C1564      C1565   1.395   1_455  A
C1564      F1567   1.358       .  S
C1565      F1569   1.358       .  S
C1572      C1573   1.407       .  A
C1572      C1577   1.400       .  A
C1572      F1590   1.358       .  S
C1573      C1578   1.480       .  S
C1573      C1574   1.403       .  A
C1574      C1575   1.394       .  A
C1574      F1579   1.358       .  S
C1575      C1576   1.409       .  A
C1575      F1591   1.358       .  S
C1576      C1577   1.406       .  A
C1577      F1580   1.358       .  S
C1578      C1581   1.403       .  A
C1578      C1585   1.405       .  A
C1581      C1582   1.397       .  A
C1581      F1586   1.358       .  S
C1582      C1583   1.412       .  A
C1582      F1588   1.358       .  S
C1583      C1584   1.412       .  A
C1584      C1585   1.399       .  A
C1584      F1587   1.358       .  S
C1585      F1589   1.358       .  S
C1592      C1593   1.401       .  A
C1592      C1597   1.398       .  A
C1592      F1610   1.358       .  S
C1593      C1598   1.469       .  S
C1593      C1594   1.401       .  A
C1594      C1595   1.396       .  A
C1594      F1599   1.358       .  S
C1595      C1596   1.409       .  A
C1595      F1611   1.358       .  S
C1596      C1597   1.411       .  A
C1597      F1600   1.358       .  S
C1598      C1601   1.401       .  A
C1598      C1605   1.400       .  A
C1601      C1602   1.397       .  A
C1601      F1606   1.358       .  S
C1602      C1603   1.409       .  A
C1602      F1608   1.358   1_545  S
C1603      C1604   1.411       .  A
C1604      C1605   1.396       .  A
C1604      F1607   1.357   1_655  S
C1605      F1609   1.358       .  S
