geometry optimzed in LAMMPS
_audit_creation_date              2020-12-01 
_audit_creation_method            'lammps2cif' 
_symmetry_space_group_name_H-M    'P1' 
_symmetry_Int_Tables_number       1 
_symmetry_cell_setting            triclinic 
loop_ 
_symmetry_equiv_pos_as_xyz 
  x,y,z 
_cell_length_a                    29.19317843 
_cell_length_b                    29.190109898333866 
_cell_length_c                    28.846117829077723 
_cell_angle_alpha                 90.10409002506181 
_cell_angle_beta                  85.72261372129161 
_cell_angle_gamma                 89.19879702613056 
loop_ 
_atom_site_label 
_atom_site_type_symbol 
_atom_site_fract_x 
_atom_site_fract_y 
_atom_site_fract_z 
_atom_site_charge 
C1          C  0.18282935  0.79244864  0.54210298     0.79700
N2          N  0.14052878  0.77508621  0.55135374    -0.78600
C3          C  0.11263399  0.76528291  0.51743483     0.82200
N4          N  0.12960456  0.76885206  0.47281720    -0.78500
C5          C  0.17171085  0.78588285  0.46142977     0.82300
N6          N  0.19862486  0.79963540  0.49639357    -0.80200
C7          C  0.71131313  0.26817786  0.54023290     0.79700
N8          N  0.73744905  0.22973494  0.53791601    -0.78600
C9          C  0.75673238  0.21392383  0.49731085     0.82200
N10         N  0.74844090  0.23533647  0.45765957    -0.78500
C11         C  0.72127803  0.27298102  0.45757102     0.82300
N12         N  0.70412762  0.29169400  0.49959791    -0.80200
C13         C  0.79542479  0.82441884  0.51996345     0.79700
N14         N  0.76458661  0.82261274  0.48556867    -0.78600
C15         C  0.77876799  0.83527010  0.44061593     0.82200
N16         N  0.82168234  0.85052404  0.43176338    -0.78500
C17         C  0.85149886  0.85392723  0.46466231     0.82300
N18         N  0.83835483  0.84058486  0.50870988    -0.80200
C19         C  0.41961532  0.84358930  0.18595144     0.79700
N20         N  0.45973456  0.83928066  0.20837365    -0.78600
C21         C  0.50144993  0.83779648  0.18215808     0.82200
N22         N  0.50188151  0.83861393  0.13508133    -0.78500
C23         C  0.46245214  0.84133605  0.11333121     0.82300
N24         N  0.42218682  0.84487890  0.13920752    -0.80200
C25         C  0.74343672  0.54155821  0.19790706     0.79700
N26         N  0.71464397  0.57926225  0.20636878    -0.78600
C27         C  0.73032818  0.62252250  0.19389970     0.82200
N28         N  0.77477241  0.62745536  0.17768021    -0.78500
C29         C  0.80304298  0.59084586  0.17172673     0.82300
N30         N  0.78686118  0.54852684  0.18059540    -0.80200
C31         C  0.79279093  0.53114397  0.77264478     0.79700
N32         N  0.77901797  0.56944731  0.74839215    -0.78600
C33         C  0.79301603  0.61262164  0.76117222     0.82200
N34         N  0.81709539  0.61672503  0.79931335    -0.78500
C35         C  0.82915121  0.58002387  0.82389686     0.82300
N36         N  0.81698200  0.53763600  0.81047313    -0.80200
C37         C  0.43841365  0.29263328  0.80661597     0.79700
N38         N  0.43571400  0.29993631  0.85304312    -0.78600
C39         C  0.47323476  0.30752710  0.87625885     0.82200
N40         N  0.51466983  0.30597122  0.85245261    -0.78500
C41         C  0.52003136  0.29870221  0.80583626     0.82300
N42         N  0.48113325  0.29267704  0.78188782    -0.80200
C43         C  0.17980231  0.60198731  0.75146155     0.79700
N44         N  0.13417263  0.60086422  0.74539030    -0.78600
C45         C  0.11285720  0.56124587  0.73706617     0.82200
N46         N  0.13798795  0.52227912  0.73417413    -0.78500
C47         C  0.18278690  0.52073474  0.74181424     0.82300
N48         N  0.20472335  0.56113099  0.75131307    -0.80200
C49         C  0.43967076  0.87763957  0.77273639     0.79700
N50         N  0.43947013  0.92194377  0.78744496    -0.78600
C51         C  0.47915180  0.94395602  0.79331324     0.82200
N52         N  0.51930490  0.92116295  0.78494075    -0.78500
C53         C  0.52138942  0.87722955  0.77025965     0.82300
N54         N  0.48115813  0.85495829  0.76329582    -0.80200
C55         C  0.01325389  0.36767694  0.24438615     0.79700
N56         N  0.01720428  0.41339453  0.24429690    -0.78600
C57         C  0.98091312  0.44211023  0.24448804     0.82200
N58         N  0.93838924  0.42430938  0.24305426    -0.78500
C59         C  0.93195965  0.37825603  0.24226748     0.82300
N60         N  0.96979661  0.34899803  0.24479314    -0.80200
Zr61       Zr  0.26790770  0.26382189  0.32403751     2.17500
O62         O  0.32128714  0.25366183  0.38450428    -0.51800
O63         O  0.27095368  0.17758630  0.31558487    -0.75000
O64         O  0.22992919  0.26200837  0.40443893    -0.81800
O65         O  0.37318164  0.30746874  0.23870997    -0.83500
O66         O  0.15464296  0.28185418  0.39971871    -0.79200
O67         O  0.35268159  0.26820095  0.30479969    -0.90800
O68         O  0.23256756  0.15257777  0.25495858    -0.76800
O69         O  0.19457277  0.23856699  0.30240418    -0.86300
O70         O  0.27748176  0.24776086  0.24300546    -0.85900
O71         O  0.21511464  0.32845732  0.33934588    -0.72700
O72         O  0.28925105  0.33575946  0.28745259    -0.84800
Zr73       Zr  0.17402607  0.35714287  0.19633380     2.26400
Zr74       Zr  0.14187499  0.30213936  0.31743709     2.06300
Zr75       Zr  0.29901647  0.31879372  0.20611382     2.10000
Zr76       Zr  0.20452023  0.22341929  0.22074082     1.78800
O77         O  0.34772556  0.38375915  0.18474870    -0.93600
O78         O  0.13729280  0.17469450  0.23022880    -0.41400
O79         O  0.22671020  0.29348839  0.18237614    -0.78100
O80         O  0.15071284  0.28606998  0.23500756    -0.96800
O81         O  0.16295422  0.37262820  0.27784070    -0.90100
O82         O  0.24670357  0.38232381  0.21925057    -0.92900
C83         C  0.25703581  0.14490153  0.28935115     1.00800
C84         C  0.38332659  0.28446996  0.27442828     1.13800
C85         C  0.18886989  0.26946641  0.42328914     1.04600
O86         O  0.09289314  0.23571023  0.32913072    -0.95100
O87         O  0.06804923  0.32339031  0.28519895    -0.90800
O88         O  0.08979508  0.35563941  0.21526324    -0.84000
C89         C  0.05879842  0.34391751  0.24730338     1.11200
O90         O  0.26622543  0.41708700  0.37403984    -0.97000
Zr91       Zr  0.23495971  0.39876415  0.30042739     1.88900
O92         O  0.17960528  0.44281456  0.20153547    -0.73700
O93         O  0.09435350  0.35152920  0.36998164    -0.53000
O94         O  0.17719911  0.43579876  0.35390142    -0.97600
O95         O  0.30421357  0.44440470  0.29009795    -0.54800
O96         O  0.21165045  0.47061956  0.26478678    -0.74200
C97         C  0.19278346  0.47667769  0.22658708     0.98100
O98         O  0.13127796  0.37970013  0.13018237    -0.63000
O99         O  0.34673011  0.26843830  0.15422822    -0.57800
O100        O  0.20875547  0.34922186  0.11403206    -0.94500
O101        O  0.28259444  0.33116853  0.12620512    -0.92900
O102        O  0.25536654  0.19080634  0.15804716    -0.93300
O103        O  0.16383983  0.20838552  0.15172145    -0.92100
C104        C  0.25101399  0.34105726  0.09901228     1.17000
H105        H  0.30075225  0.22433973  0.23641237     0.32900
H106        H  0.12193344  0.27592305  0.22435990     0.43800
H107        H  0.25804540  0.40834631  0.20156015     0.37300
H108        H  0.21342994  0.33721782  0.37168685     0.33800
H109        H  0.14946339  0.14286526  0.23022254     0.25600
H110        H  0.07722447  0.33017368  0.39127956     0.31500
H111        H  0.15158456  0.44445071  0.33484861     0.37400
H112        H  0.26322203  0.21691217  0.13719632     0.31900
H113        H  0.37511287  0.28583269  0.14626722     0.30800
H114        H  0.33797807  0.39441145  0.15438866     0.32400
H115        H  0.30552375  0.45460654  0.25731670     0.31400
H116        H  0.15373240  0.23901754  0.14146414     0.35400
H117        H  0.10532064  0.35834479  0.12921194     0.28100
H118        H  0.31024095  0.22681292  0.40280290     0.32400
H119        H  0.28353862  0.38915823  0.38206699     0.35200
H120        H  0.35663137  0.24282357  0.17375548     0.27800
H121        H  0.11695509  0.40975794  0.13892354     0.40700
H122        H  0.08270139  0.23629051  0.36263725     0.30800
H123        H  0.12456160  0.18006362  0.26253526     0.38400
H124        H  0.32987779  0.42198090  0.29108816     0.30200
H125        H  0.11610858  0.36676283  0.38953835     0.30300
H126        H  0.31601550  0.28028613  0.40565862     0.30500
C127        C  0.27280970  0.09584101  0.29786938     0.79700
N128        N  0.30891308  0.08961662  0.32455561    -0.78600
C129        C  0.32866508  0.04757163  0.32900818     0.82200
N130        N  0.31122222  0.01088297  0.30903701    -0.78500
C131        C  0.27449321  0.01474263  0.28367661     0.82300
N132        N  0.25494803  0.05761139  0.27730038    -0.80200
Zr133      Zr  0.25528109  0.87767515  0.19306913     2.17500
O134        O  0.25648538  0.93944521  0.13617719    -0.51800
O135        O  0.34050659  0.86655084  0.19101048    -0.75000
O136        O  0.26342557  0.95418553  0.22902010    -0.81800
O137        O  0.20782114  0.81040602  0.09803843    -0.83500
O138        O  0.23933293  0.94543184  0.30535551    -0.79200
O139        O  0.26609597  0.85835383  0.10921726    -0.90800
O140        O  0.36286989  0.80766183  0.23602873    -0.76800
O141        O  0.27809096  0.85192324  0.26653783    -0.86300
O142        O  0.26833244  0.79701878  0.18605847    -0.85900
O143        O  0.18954845  0.89231169  0.24772849    -0.72700
O144        O  0.18293765  0.84486342  0.17513924    -0.84800
Zr145      Zr  0.15541245  0.75033103  0.29833189     2.26400
Zr146      Zr  0.21357867  0.86674685  0.32102699     2.06300
Zr147      Zr  0.19634799  0.76453378  0.16914606     2.10000
Zr148      Zr  0.29069756  0.77124841  0.25956240     1.78800
O149        O  0.13116007  0.74720160  0.12436911    -0.93600
O150        O  0.33200276  0.77608823  0.32975634    -0.41400
O151        O  0.21944612  0.73782481  0.24216996    -0.78100
O152        O  0.22772130  0.78514651  0.31570593    -0.96800
O153        O  0.14217831  0.83152423  0.30476200    -0.90100
O154        O  0.13208790  0.77603305  0.22470238    -0.92900
C155        C  0.37179833  0.84066171  0.20789279     1.00800
C156        C  0.24321176  0.83300449  0.08275024     1.13800
C157        C  0.25546479  0.96981327  0.27080316     1.04600
O158        O  0.27450032  0.88427602  0.37128794    -0.95100
O159        O  0.20085612  0.83229246  0.39789937    -0.90800
O160        O  0.16519813  0.76549531  0.38243487    -0.84000
C161        C  0.18142719  0.79475954  0.41085094     1.11200
O162        O  0.10664459  0.92814895  0.19026923    -0.97000
Zr163      Zr  0.11892116  0.85655919  0.23115048     1.88900
O164        O  0.06916235  0.76414261  0.30671289    -0.73700
O165        O  0.15764332  0.91809304  0.36081350    -0.53000
O166        O  0.07757143  0.91490930  0.27857003    -0.97600
O167        O  0.07672560  0.83999041  0.16341676    -0.54800
O168        O  0.04702977  0.82400799  0.26298744    -0.74200
C169        C  0.03771922  0.79127813  0.29152325     0.98100
O170        O  0.12621987  0.68615865  0.34540801    -0.63000
O171        O  0.24266814  0.71221464  0.11921235    -0.57800
O172        O  0.16878877  0.66981372  0.26272274    -0.94500
O173        O  0.18754384  0.68411715  0.18651245    -0.92900
O174        O  0.32773524  0.71672947  0.20420075    -0.93300
O175        O  0.30656415  0.69741316  0.29460099    -0.92100
C176        C  0.17951130  0.65587363  0.22013420     1.17000
H177        H  0.29212225  0.79018275  0.16180144     0.32900
H178        H  0.23918784  0.77292324  0.34367756     0.43800
H179        H  0.10537067  0.76001749  0.21584000     0.37300
H180        H  0.18234658  0.92463465  0.24884660     0.33800
H181        H  0.36414721  0.76732369  0.31986074     0.25600
H182        H  0.17543474  0.93585742  0.38238543     0.31500
H183        H  0.04544049  0.91374726  0.26984099     0.37400
H184        H  0.30270297  0.69648325  0.19574630     0.31900
H185        H  0.23269721  0.71847766  0.08783651     0.30800
H186        H  0.11937148  0.71775823  0.13695622     0.32400
H187        H  0.09561166  0.85267438  0.13664777     0.31400
H188        H  0.27708537  0.68887279  0.31134078     0.35400
H189        H  0.10815877  0.70024129  0.37230527     0.28100
H190        H  0.28544784  0.95593455  0.13964372     0.32400
H191        H  0.13717778  0.93552951  0.17505003     0.35200
H192        H  0.27430107  0.72383038  0.11904467     0.27800
H193        H  0.10265173  0.67219408  0.32707245     0.40700
H194        H  0.30120153  0.89247051  0.34986411     0.30800
H195        H  0.33317618  0.80927773  0.33656014     0.38400
H196        H  0.04911769  0.86016215  0.16678961     0.30200
H197        H  0.14951335  0.94048713  0.33692904     0.30300
H198        H  0.23169105  0.96108739  0.14748385     0.30500
Zr199      Zr  0.66596986  0.27765514  0.30672817     2.17500
O200        O  0.61326920  0.24991908  0.36992793    -0.51800
O201        O  0.68007759  0.19291278  0.30319035    -0.75000
O202        O  0.58543433  0.27576889  0.28767559    -0.81800
O203        O  0.75691260  0.30528795  0.38972576    -0.83500
O204        O  0.57651860  0.30150685  0.21438970    -0.79200
O205        O  0.68142093  0.28694458  0.38947624    -0.90800
O206        O  0.72887338  0.16820282  0.24340957    -0.76800
O207        O  0.67585419  0.25934200  0.22570573    -0.86300
O208        O  0.74577265  0.26019416  0.29274945    -0.85900
O209        O  0.64280865  0.34553862  0.26537396    -0.72700
O210        O  0.70563318  0.34605957  0.32649341    -0.84800
Zr211      Zr  0.77611730  0.37712830  0.19060470     2.26400
Zr212      Zr  0.65468743  0.32733217  0.18371244     2.06300
Zr213      Zr  0.78588589  0.32851586  0.31137546     2.10000
Zr214      Zr  0.75583496  0.24154440  0.21184800     1.78800
O215        O  0.80788893  0.39031032  0.36172107    -0.93600
O216        O  0.72838226  0.20110400  0.14543470    -0.41400
O217        O  0.79749759  0.30896321  0.23077782    -0.78100
O218        O  0.73550869  0.30868618  0.17002396    -0.96800
O219        O  0.69597853  0.39475991  0.20326047    -0.90100
O220        O  0.76447471  0.39640816  0.27064715    -0.92900
C221        C  0.70210530  0.16048502  0.27961383     1.00800
C222        C  0.71839295  0.29289764  0.41044301     1.13800
C223        C  0.56044273  0.28450430  0.25374012     1.04600
O224        O  0.62854957  0.27378951  0.12685719    -0.95100
O225        O  0.68414420  0.35144017  0.10353915    -0.90800
O226        O  0.75630881  0.37842846  0.10993498    -0.84000
C227        C  0.72232152  0.36878452  0.08599326     1.11200
O228        O  0.62893530  0.42205582  0.35114214    -0.97000
Zr229      Zr  0.68394651  0.41286381  0.28386991     1.88900
O230        O  0.76110644  0.46146312  0.19355535    -0.73700
O231        O  0.60253686  0.38926629  0.16429485    -0.53000
O232        O  0.61155960  0.45039260  0.26845050    -0.97600
O233        O  0.71910596  0.46024057  0.34074337    -0.54800
O234        O  0.70121309  0.48439958  0.24307695    -0.74200
C235        C  0.73347307  0.49290464  0.21193897     0.98100
O236        O  0.84059919  0.39535716  0.13508566    -0.63000
O237        O  0.84442270  0.27594269  0.33663133    -0.57800
O238        O  0.85775360  0.37781127  0.21128934    -0.94500
O239        O  0.86537034  0.34374599  0.28111919    -0.92900
O240        O  0.82271334  0.19837295  0.23414004    -0.93300
O241        O  0.81542329  0.23354384  0.14854461    -0.92100
C242        C  0.88247207  0.36366314  0.24413832     1.17000
H243        H  0.75499979  0.23513088  0.31197454     0.32900
H244        H  0.74284707  0.30031259  0.13795345     0.43800
H245        H  0.78294838  0.42224669  0.27808386     0.37300
H246        H  0.61106603  0.35365068  0.27343318     0.33800
H247        H  0.72531754  0.16869475  0.15506720     0.25600
H248        H  0.59558263  0.38305652  0.13182334     0.31500
H249        H  0.61533432  0.45981774  0.23544831     0.37400
H250        H  0.82517242  0.20583000  0.26733225     0.31900
H251        H  0.85666239  0.29133921  0.36360820     0.30800
H252        H  0.84128821  0.38577636  0.36419139     0.32400
H253        H  0.71983740  0.44076049  0.36875207     0.31400
H254        H  0.83477192  0.26088879  0.15117213     0.35400
H255        H  0.84316429  0.36980725  0.11234795     0.28100
H256        H  0.59757727  0.22334300  0.35717398     0.32400
H257        H  0.61255500  0.39257957  0.35356438     0.35200
H258        H  0.82738761  0.24930581  0.34973445     0.27800
H259        H  0.83071316  0.42234622  0.11740548     0.40700
H260        H  0.60322514  0.29024668  0.11267643     0.30800
H261        H  0.69641352  0.21219761  0.14345687     0.38400
H262        H  0.69598799  0.48449526  0.34944343     0.30200
H263        H  0.57329044  0.38367474  0.18291114     0.30300
H264        H  0.58907761  0.27386248  0.37531231     0.30500
C265        C  0.70116563  0.11345352  0.30109333     0.79700
N266        N  0.70024113  0.11373580  0.34781350    -0.78600
C267        C  0.70066650  0.07518112  0.37318186     0.82200
N268        N  0.70213293  0.03421539  0.35090196    -0.78500
C269        C  0.70298271  0.03139063  0.30383161     0.82300
N270        N  0.70266955  0.07160595  0.27809580    -0.80200
Zr271      Zr  0.76503849  0.87669446  0.28067180     2.17500
O272        O  0.82610730  0.93315300  0.27645320    -0.51800
O273        O  0.76653496  0.86259274  0.36542902    -0.75000
O274        O  0.73701557  0.95670980  0.29495956    -0.81800
O275        O  0.84600560  0.77459662  0.26066340    -0.83500
O276        O  0.66889786  0.96930700  0.26298513    -0.79200
O277        O  0.84513450  0.84896718  0.28467022    -0.90800
O278        O  0.71872665  0.80734057  0.39474839    -0.76800
O279        O  0.68583373  0.87122871  0.30657045    -0.86300
O280        O  0.75397245  0.79807025  0.29982624    -0.85900
O281        O  0.72244919  0.89888838  0.21525300    -0.72700
O282        O  0.78533534  0.83356497  0.21027345    -0.84800
Zr283      Zr  0.65048968  0.76853495  0.19235878     2.26400
Zr284      Zr  0.64239605  0.89185736  0.24166742     2.06300
Zr285      Zr  0.77231425  0.75503809  0.23036738     2.10000
Zr286      Zr  0.67501743  0.79284625  0.32719823     1.78800
O287        O  0.81200485  0.72475333  0.15916670    -0.93600
O288        O  0.62478789  0.83902149  0.38069143    -0.41400
O289        O  0.69326073  0.74839754  0.25804202    -0.78100
O290        O  0.63068272  0.81266460  0.26274207    -0.96800
O291        O  0.66192528  0.84726775  0.17257547    -0.90100
O292        O  0.72971803  0.77532526  0.16511316    -0.92900
C293        C  0.75120439  0.83580276  0.39881145     1.00800
C294        C  0.86511589  0.80948033  0.27817253     1.13800
C295        C  0.70365415  0.98341026  0.28413597     1.04600
O296        O  0.59080175  0.91677838  0.30733482    -0.95100
O297        O  0.56448609  0.86966093  0.22055006    -0.90800
O298        O  0.57118277  0.79758609  0.18989411    -0.84000
C299        C  0.54771861  0.83423389  0.20112043     1.11200
O300        O  0.80492469  0.90526227  0.12799839    -0.97000
Zr301      Zr  0.74085196  0.85401339  0.14627317     1.88900
O302        O  0.64757570  0.77900728  0.10715681    -0.73700
O303        O  0.61456012  0.94770541  0.18722109    -0.53000
O304        O  0.71488362  0.92347399  0.10883371    -0.97600
O305        O  0.80102611  0.82055824  0.09288870    -0.54800
O306        O  0.70194925  0.82888922  0.07905924    -0.74200
C307        C  0.66819776  0.80221001  0.07372416     0.98100
O308        O  0.59482190  0.70686160  0.19643026    -0.63000
O309        O  0.82031743  0.69452934  0.26056155    -0.57800
O310        O  0.67989329  0.68795371  0.18235172    -0.94500
O311        O  0.72463261  0.68737631  0.24176332    -0.92900
O312        O  0.68940544  0.71937581  0.36365355    -0.93300
O313        O  0.60607245  0.74854982  0.34597985    -0.92100
C314        C  0.70721850  0.66656750  0.20842324     1.17000
H315        H  0.77400401  0.78723585  0.32275518     0.32900
H316        H  0.59886506  0.80808211  0.27299623     0.43800
H317        H  0.73666798  0.75565268  0.13841512     0.37300
H318        H  0.72926769  0.93030857  0.20720173     0.33800
H319        H  0.62298745  0.82155340  0.41014197     0.25600
H320        H  0.60511880  0.92937533  0.16070876     0.31500
H321        H  0.69071674  0.93671058  0.13094049     0.37400
H322        H  0.71185187  0.70340011  0.34158418     0.31900
H323        H  0.80000539  0.67753346  0.28331040     0.30800
H324        H  0.84505790  0.72609013  0.16453900     0.32400
H325        H  0.78684684  0.79415073  0.07816438     0.31400
H326        H  0.60469760  0.72713523  0.31945697     0.35400
H327        H  0.57214011  0.71506593  0.22247292     0.28100
H328        H  0.82304220  0.94990816  0.30644145     0.32400
H329        H  0.80424371  0.91228178  0.09447384     0.35200
H330        H  0.82726938  0.67278723  0.23457855     0.27800
H331        H  0.57792688  0.70998537  0.16805353     0.40700
H332        H  0.57717689  0.94595263  0.29704367     0.30800
H333        H  0.64266893  0.86648975  0.38755979     0.38400
H334        H  0.82325176  0.80666170  0.11321201     0.30200
H335        H  0.58538682  0.95981955  0.20254643     0.30300
H336        H  0.81772770  0.95575591  0.25284255     0.30500
C337        C  0.98766655  0.78615983  0.30908826     0.79700
N338        N  0.97727077  0.76580241  0.35112663    -0.78600
C339        C  0.93276626  0.76285898  0.36899358     0.82200
N340        N  0.89867657  0.77909375  0.34447848    -0.78500
C341        C  0.90713836  0.79924038  0.30281921     0.82300
N342        N  0.95196458  0.80278050  0.28449872    -0.80200
C343        C  0.27822973  0.33808220  0.96701289     0.79700
N344        N  0.25104459  0.33598917  0.00868124    -0.78600
C345        C  0.27051123  0.34694063  0.04955313     0.82200
N346        N  0.31503234  0.35934145  0.04721635    -0.78500
C347        C  0.34144658  0.36081975  0.00722360     0.82300
N348        N  0.32287710  0.35017503  0.96731640    -0.80200
Zr349      Zr  0.18179300  0.36069366  0.69860069     2.17500
O350        O  0.15796317  0.41670142  0.64219705    -0.51800
O351        O  0.09794677  0.34878229  0.70457719    -0.75000
O352        O  0.18364075  0.32694482  0.61701340    -0.81800
O353        O  0.21834807  0.46081966  0.78393089    -0.83500
O354        O  0.19763481  0.25181179  0.63088842    -0.79200
O355        O  0.18783920  0.44389434  0.71553857    -0.90800
O356        O  0.06911136  0.31115932  0.76881457    -0.76800
O357        O  0.15600389  0.28777551  0.72602810    -0.86300
O358        O  0.16360843  0.36662190  0.78122959    -0.85900
O359        O  0.24706376  0.31050938  0.68114921    -0.72700
O360        O  0.25048202  0.38328808  0.73416476    -0.84800
Zr361      Zr  0.27496293  0.25826656  0.82069574     2.26400
Zr362      Zr  0.22001585  0.23751946  0.70883388     2.06300
Zr363      Zr  0.23316306  0.38509605  0.81707817     2.10000
Zr364      Zr  0.13863705  0.29328908  0.80796710     1.78800
O365        O  0.29858298  0.43259421  0.83211335    -0.93600
O366        O  0.09289825  0.22387742  0.80626194    -0.41400
O367        O  0.21006346  0.30971666  0.84031207    -0.78100
O368        O  0.20195057  0.24028648  0.79132446    -0.96800
O369        O  0.29170276  0.25698778  0.73889311    -0.90100
O370        O  0.29729917  0.33451607  0.79874108    -0.92900
C371        C  0.06446405  0.33065098  0.72964605     1.00800
C372        C  0.20044559  0.47275657  0.74630135     1.13800
C373        C  0.18778261  0.28451035  0.60333442     1.04600
O374        O  0.16389320  0.18233733  0.68644014    -0.95100
O375        O  0.22584637  0.16384861  0.74688022    -0.90800
O376        O  0.28403012  0.17542303  0.79258979    -0.84000
C377        C  0.26020856  0.14881314  0.76744788     1.11200
O378        O  0.32687978  0.37637598  0.64507727    -0.97000
Zr379      Zr  0.31484964  0.33288548  0.71689621     1.88900
O380        O  0.35999445  0.27006870  0.81326755    -0.73700
O381        O  0.27994117  0.20186658  0.65856856    -0.53000
O382        O  0.36576012  0.29934457  0.65507905    -0.97600
O383        O  0.34926418  0.40494809  0.73755175    -0.54800
O384        O  0.38627865  0.30852101  0.74840493    -0.74200
C385        C  0.39279422  0.28825899  0.78667501     0.98100
O386        O  0.28493257  0.20529577  0.88456156    -0.63000
O387        O  0.17935912  0.42458094  0.87260393    -0.57800
O388        O  0.27158451  0.29026680  0.90059322    -0.94500
O389        O  0.24985211  0.36553578  0.89727474    -0.92900
O390        O  0.09802147  0.34869857  0.86002718    -0.93300
O391        O  0.12275203  0.26127873  0.88545092    -0.92100
C392        C  0.26273091  0.32992352  0.91961577     1.17000
H393        H  0.14012633  0.38986570  0.78804422     0.32900
H394        H  0.19213221  0.21146902  0.80466104     0.43800
H395        H  0.32270288  0.34528842  0.81517287     0.37300
H396        H  0.25656770  0.30954354  0.64834685     0.33800
H397        H  0.08312124  0.22201087  0.77419091     0.25600
H398        H  0.28992278  0.22707113  0.63747667     0.31500
H399        H  0.39553303  0.31486420  0.65691465     0.37400
H400        H  0.06500662  0.34390092  0.85618180     0.31900
H401        H  0.16560118  0.40016663  0.89271363     0.30800
H402        H  0.30085171  0.45562871  0.80694240     0.32400
H403        H  0.33116851  0.42908506  0.72280347     0.31400
H404        H  0.08891509  0.26273564  0.89145349     0.35400
H405        H  0.26083652  0.18202688  0.88228897     0.28100
H406        H  0.13241723  0.40229998  0.62701046     0.32400
H407        H  0.29910059  0.39612969  0.64425813     0.35200
H408        H  0.19893759  0.44173379  0.89300419     0.27800
H409        H  0.31425732  0.18879648  0.87612723     0.40700
H410        H  0.13384796  0.19840755  0.69159386     0.30800
H411        H  0.11466242  0.19782941  0.80845424     0.38400
H412        H  0.37959705  0.40498001  0.71976267     0.30200
H413        H  0.30582242  0.19681813  0.67827128     0.30300
H414        H  0.18359461  0.41779738  0.61775909     0.30500
C415        C  0.27942330  0.10482379  0.74649354     0.79700
N416        N  0.29653789  0.11147112  0.70236634    -0.78600
C417        C  0.30256977  0.07714286  0.67141761     0.82200
N418        N  0.29350924  0.03385030  0.68492654    -0.78500
C419        C  0.27688294  0.02438003  0.72913807     0.82300
N420        N  0.26782292  0.06054260  0.76023395    -0.80200
Zr421      Zr  0.19341371  0.75273257  0.69169290     2.17500
O422        O  0.17127599  0.70502345  0.62763263    -0.51800
O423        O  0.10842228  0.75035412  0.70507171    -0.75000
O424        O  0.19583589  0.67209240  0.71489512    -0.81800
O425        O  0.21018623  0.84410995  0.59987152    -0.83500
O426        O  0.21017931  0.66754964  0.79109774    -0.79200
O427        O  0.21420532  0.76731117  0.60964652    -0.90800
O428        O  0.07576171  0.80774697  0.74959830    -0.76800
O429        O  0.16793462  0.76395580  0.77083603    -0.86300
O430        O  0.16757850  0.83069915  0.69796368    -0.85900
O431        O  0.26022952  0.73463805  0.73277200    -0.72700
O432        O  0.25952563  0.79804403  0.66826204    -0.84800
Zr433      Zr  0.27397225  0.87244625  0.80071179     2.26400
Zr434      Zr  0.23391310  0.74638785  0.81221343     2.06300
Zr435      Zr  0.23366387  0.87584838  0.67502622     2.10000
Zr436      Zr  0.14358131  0.84233777  0.77814339     1.78800
O437        O  0.29060742  0.90272315  0.61552043    -0.93600
O438        O  0.09548647  0.80940340  0.84197966    -0.41400
O439        O  0.20879682  0.88850135  0.75555924    -0.78100
O440        O  0.20808266  0.82533404  0.82226185    -0.96800
O441        O  0.29940656  0.79406296  0.79274244    -0.90100
O442        O  0.29857013  0.86102419  0.72001792    -0.92900
C443        C  0.07295976  0.77162201  0.72490822     1.00800
C444        C  0.20714984  0.80258200  0.58462266     1.13800
C445        C  0.19910700  0.64926500  0.75261156     1.04600
O446        O  0.18069508  0.71865216  0.87454826    -0.95100
O447        O  0.25180482  0.77416442  0.88759697    -0.90800
O448        O  0.27564866  0.84811733  0.88448018    -0.84000
C449        C  0.26604916  0.81047705  0.90681691     1.11200
O450        O  0.34443114  0.72249677  0.65662310    -0.97000
Zr451      Zr  0.32449805  0.78327159  0.71283149     1.88900
O452        O  0.35879411  0.87605362  0.78989160    -0.73700
O453        O  0.29756475  0.69637239  0.83070074    -0.53000
O454        O  0.36736902  0.72191826  0.74801385    -0.97600
O455        O  0.37048277  0.80724161  0.64330262    -0.54800
O456        O  0.39100630  0.82224266  0.74015766    -0.74200
C457        C  0.39392465  0.85653370  0.76759362     0.98100
O458        O  0.27424951  0.93619722  0.85556434    -0.63000
O459        O  0.17561089  0.92772207  0.64694528    -0.57800
O460        O  0.27215292  0.95473059  0.77694709    -0.94500
O461        O  0.25465244  0.95248303  0.70141913    -0.92900
O462        O  0.10017573  0.90812118  0.75199187    -0.93300
O463        O  0.12859313  0.90010605  0.83872499    -0.92100
C464        C  0.26613552  0.97441169  0.73766543     1.17000
H465        H  0.14284591  0.83671482  0.67824806     0.32900
H466        H  0.19744752  0.83099917  0.85424815     0.43800
H467        H  0.32297782  0.88168996  0.71043855     0.37300
H468        H  0.27093356  0.70353183  0.72746745     0.33800
H469        H  0.11094601  0.81650367  0.87047931     0.25600
H470        H  0.31476234  0.71394024  0.85293835     0.31500
H471        H  0.37850188  0.73556013  0.77647003     0.37400
H472        H  0.07821554  0.89548207  0.73094302     0.31900
H473        H  0.14938668  0.92636105  0.67066437     0.30800
H474        H  0.32044238  0.90033469  0.62958073     0.32400
H475        H  0.38191346  0.83795073  0.65076937     0.31400
H476        H  0.15938768  0.91005553  0.84654209     0.35400
H477        H  0.24895736  0.93055250  0.87960064     0.28100
H478        H  0.13854009  0.69803779  0.63509212     0.32400
H479        H  0.31854270  0.72219430  0.63630070     0.35200
H480        H  0.18770041  0.95902094  0.64986783     0.27800
H481        H  0.30287639  0.93242695  0.87164278     0.40700
H482        H  0.14999935  0.72848090  0.86557054     0.30800
H483        H  0.06714038  0.82856875  0.84433407     0.38400
H484        H  0.34788521  0.81314894  0.61999292     0.30200
H485        H  0.28310473  0.67138674  0.84948925     0.30300
H486        H  0.18771202  0.67530455  0.62978586     0.30500
C487        C  0.02705096  0.75094529  0.71935155     0.79700
N488        N  0.02707437  0.70564807  0.70919572    -0.78600
C489        C  0.98783056  0.68363625  0.70218764     0.82200
N490        N  0.94781892  0.70764698  0.70322502    -0.78500
C491        C  0.94610391  0.75322785  0.71229742     0.82300
N492        N  0.98597756  0.77519036  0.72172640    -0.80200
C493        C  0.02124295  0.32500477  0.70610049     0.79700
N494        N  0.02765794  0.30817431  0.66233714    -0.78600
C495        C  0.99259614  0.30321047  0.63503212     0.82200
N496        N  0.95010377  0.31668889  0.65189087    -0.78500
C497        C  0.94140835  0.33337055  0.69570159     0.82300
N498        N  0.97747331  0.33741870  0.72381942    -0.80200
Zr499      Zr  0.66292993  0.27435984  0.70530056     2.17500
O500        O  0.59402085  0.26012764  0.66484801    -0.51800
O501        O  0.66635223  0.18881140  0.71360655    -0.75000
O502        O  0.67853911  0.27217661  0.61880089    -0.81800
O503        O  0.59782248  0.30716102  0.81711000    -0.83500
O504        O  0.74408426  0.31059150  0.59714731    -0.79200
O505        O  0.58341178  0.28467041  0.74444804    -0.90800
O506        O  0.73084375  0.15983867  0.74261990    -0.76800
O507        O  0.74254306  0.25347955  0.69370227    -0.86300
O508        O  0.68680219  0.25030023  0.77917267    -0.85900
O509        O  0.70265329  0.34296167  0.67849830    -0.72700
O510        O  0.65465923  0.34107232  0.75541843    -0.84800
Zr511      Zr  0.79842234  0.36316033  0.79164390     2.26400
Zr512      Zr  0.78269374  0.32157705  0.66827094     2.06300
Zr513      Zr  0.67867877  0.31602722  0.82884254     2.10000
Zr514      Zr  0.76609754  0.22955021  0.76774825     1.78800
O515        O  0.63587281  0.37376957  0.87594465    -0.93600
O516        O  0.82426234  0.18432979  0.72203354    -0.41400
O517        O  0.75830591  0.29499890  0.81883601    -0.78100
O518        O  0.80632007  0.29615712  0.74183290    -0.96800
O519        O  0.77534739  0.38768624  0.71781405    -0.90100
O520        O  0.71911957  0.38335793  0.80241868    -0.92900
C521        C  0.69179476  0.15472568  0.72622020     1.00800
C522        C  0.56976752  0.29662744  0.78658147     1.13800
C523        C  0.70851477  0.28800423  0.58765925     1.04600
O524        O  0.82708490  0.26024177  0.62785536    -0.95100
O525        O  0.86428149  0.33561480  0.67731333    -0.90800
O526        O  0.87724738  0.35389782  0.75194997    -0.84000
C527        C  0.89156163  0.34319410  0.70973362     1.11200
O528        O  0.62449375  0.43177283  0.69712586    -0.97000
Zr529      Zr  0.69610609  0.40833803  0.72894401     1.88900
O530        O  0.79955073  0.44898267  0.78288327    -0.73700
O531        O  0.80423966  0.37972022  0.61054873    -0.53000
O532        O  0.70970858  0.44126063  0.65163198    -0.97600
O533        O  0.64540462  0.45778916  0.77891848    -0.54800
O534        O  0.74175782  0.47641076  0.74171160    -0.74200
C535        C  0.77747888  0.48252141  0.76420211     0.98100
O536        O  0.85989383  0.36706897  0.84429152    -0.63000
O537        O  0.65655989  0.25121543  0.87883753    -0.57800
O538        O  0.77814193  0.36874981  0.87704868    -0.94500
O539        O  0.71325906  0.33071981  0.90153802    -0.92900
O540        O  0.74543433  0.18972649  0.84027540    -0.93300
O541        O  0.83518108  0.21201414  0.80718327    -0.92100
C542        C  0.74817295  0.35485154  0.90936290     1.17000
H543        H  0.66847420  0.22553349  0.79217547     0.32900
H544        H  0.83728749  0.28422629  0.73935821     0.43800
H545        H  0.71480334  0.40754170  0.82528123     0.37300
H546        H  0.69068264  0.35322626  0.64996591     0.33800
H547        H  0.80980571  0.17605732  0.69325181     0.25600
H548        H  0.81699992  0.40495183  0.62836411     0.31500
H549        H  0.70525129  0.47469045  0.65621990     0.37400
H550        H  0.75303196  0.15710379  0.83356524     0.31900
H551        H  0.66616539  0.25881992  0.91007691     0.30800
H552        H  0.61531625  0.38873578  0.85456147     0.32400
H553        H  0.65081677  0.48914570  0.76687452     0.31400
H554        H  0.84625450  0.24218655  0.81698291     0.35400
H555        H  0.87579373  0.33687647  0.84160819     0.28100
H556        H  0.60200170  0.23435955  0.64328269     0.32400
H557        H  0.61364192  0.40375000  0.68223406     0.35200
H558        H  0.62258168  0.25219793  0.88250891     0.27800
H559        H  0.88229127  0.38908820  0.83023518     0.40700
H560        H  0.80857435  0.24994427  0.60251979     0.30800
H561        H  0.84842458  0.20626462  0.71159047     0.38400
H562        H  0.65817058  0.45800059  0.80973169     0.30200
H563        H  0.83107275  0.36639964  0.59198534     0.30300
H564        H  0.59050394  0.28704096  0.64450729     0.30500
C565        C  0.67069865  0.10818625  0.72804275     0.79700
N566        N  0.62504359  0.10839487  0.73870158    -0.78600
C567        C  0.60101645  0.06952833  0.74522469     0.82200
N568        N  0.62327759  0.02883760  0.74021598    -0.78500
C569        C  0.66933609  0.02640011  0.72941175     0.82300
N570        N  0.69393211  0.06653375  0.72385879    -0.80200
Zr571      Zr  0.68364022  0.87605512  0.79231207     2.17500
O572        O  0.67842292  0.93186351  0.85561669    -0.51800
O573        O  0.60015662  0.87710210  0.78413904    -0.75000
O574        O  0.67756598  0.95492568  0.76480113    -0.81800
O575        O  0.70426134  0.78210012  0.88311438    -0.83500
O576        O  0.71162880  0.96244989  0.69169848    -0.79200
O577        O  0.66857147  0.85081067  0.87317283    -0.90800
O578        O  0.57633709  0.82313540  0.73491266    -0.76800
O579        O  0.66802199  0.86521409  0.71339834    -0.86300
O580        O  0.66309317  0.79802766  0.78518895    -0.85900
O581        O  0.75397418  0.89532232  0.74789313    -0.72700
O582        O  0.75008878  0.83326381  0.81250533    -0.84800
Zr583      Zr  0.78510240  0.75925829  0.67915801     2.26400
Zr584      Zr  0.73772401  0.88341638  0.66839226     2.06300
Zr585      Zr  0.72909260  0.75500251  0.80457322     2.10000
Zr586      Zr  0.64860791  0.78655144  0.70599553     1.78800
O587        O  0.78335890  0.72664018  0.85843407    -0.93600
O588        O  0.61090315  0.81480541  0.63874829    -0.41400
O589        O  0.71443396  0.74158917  0.72484365    -0.78100
O590        O  0.71822597  0.80361424  0.66013957    -0.96800
O591        O  0.80446601  0.83840559  0.68607839    -0.90100
O592        O  0.79893615  0.77151933  0.75897121    -0.92900
C593        C  0.56851874  0.85686945  0.76297247     1.00800
C594        C  0.67999274  0.81676098  0.89852310     1.13800
C595        C  0.68943830  0.97897322  0.72864867     1.04600
O596        O  0.68133146  0.90842759  0.61556055    -0.95100
O597        O  0.76059267  0.85725513  0.58924656    -0.90800
O598        O  0.79383265  0.78651095  0.59555610    -0.84000
C599        C  0.78116100  0.82147400  0.57121959     1.11200
O600        O  0.83441569  0.91353196  0.81661239    -0.97000
Zr601      Zr  0.81941185  0.84984602  0.76544581     1.88900
O602        O  0.86900246  0.75681986  0.68991405    -0.73700
O603        O  0.79808218  0.93530658  0.63987888    -0.53000
O604        O  0.86236216  0.90811048  0.72110435    -0.97600
O605        O  0.85592682  0.83098866  0.83648709    -0.54800
O606        O  0.89110786  0.80999738  0.74105444    -0.74200
C607        C  0.89964532  0.77581047  0.71372697     0.98100
O608        O  0.79621364  0.69736900  0.62227861    -0.63000
O609        O  0.66719427  0.70706976  0.83750573    -0.57800
O610        O  0.78883786  0.67833025  0.70895875    -0.94500
O611        O  0.74867156  0.67728223  0.77980659    -0.92900
O612        O  0.60141152  0.72645978  0.74244212    -0.93300
O613        O  0.63873798  0.72421456  0.65158687    -0.92100
C614        C  0.77332886  0.65759028  0.74664350     1.17000
H615        H  0.63653321  0.79082769  0.80572699     0.32900
H616        H  0.71164408  0.79690671  0.62861136     0.43800
H617        H  0.82296820  0.75147530  0.76855120     0.37300
H618        H  0.76167241  0.92690040  0.75313202     0.33800
H619        H  0.60415151  0.84757052  0.64559311     0.25600
H620        H  0.82499674  0.91521261  0.63129114     0.31500
H621        H  0.89213109  0.90973428  0.73532234     0.37400
H622        H  0.56978771  0.73328888  0.73395509     0.31900
H623        H  0.65738192  0.68905226  0.81097870     0.30800
H624        H  0.80700711  0.70895904  0.83931061     0.32400
H625        H  0.87062792  0.80055715  0.83063793     0.31400
H626        H  0.66972176  0.71007601  0.64623571     0.35400
H627        H  0.77260065  0.70224149  0.59979224     0.28100
H628        H  0.65040229  0.95042031  0.85151592     0.32400
H629        H  0.80700961  0.91533729  0.83898075     0.35200
H630        H  0.68244936  0.68443943  0.85698553     0.27800
H631        H  0.82590761  0.70362960  0.60470374     0.40700
H632        H  0.69380757  0.93740533  0.60255872     0.30800
H633        H  0.63509252  0.81522722  0.61283202     0.38400
H634        H  0.83011249  0.82500873  0.85984151     0.30200
H635        H  0.78821519  0.94664397  0.60980690     0.30300
H636        H  0.70427397  0.95300313  0.84876344     0.30500
C637        C  0.27550473  0.80308179  0.95661904     0.79700
N638        N  0.29278442  0.76069055  0.96510472    -0.78600
C639        C  0.29704089  0.74584280  0.00873236     0.82200
N640        N  0.28510172  0.77374444  0.04452420    -0.78500
C641        C  0.26606192  0.81531371  0.03856680     0.82300
N642        N  0.25945139  0.83030806  0.99396325    -0.80200
C643        C  0.74875589  0.37706520  0.95586303     0.79700
N644        N  0.73500216  0.35744770  0.99813763    -0.78600
C645        C  0.72764334  0.38528273  0.03689869     0.82200
N646        N  0.73050222  0.43137403  0.03170729    -0.78500
C647        C  0.74200202  0.45049233  0.98977538     0.82300
N648        N  0.75285396  0.42282398  0.95330892    -0.80200
C649        C  0.65543322  0.81301426  0.94521482     0.79700
N650        N  0.67588551  0.81011939  0.98647439    -0.78600
C651        C  0.64945278  0.80077673  0.02688249     0.82200
N652        N  0.60376235  0.79289197  0.02477114    -0.78500
C653        C  0.58344482  0.79662087  0.98405702     0.82300
N654        N  0.60983992  0.80684247  0.94509885    -0.80200
C655        C  0.51302759  0.26511041  0.25984423     0.79700
N656        N  0.47179842  0.28955207  0.26366071    -0.78600
C657        C  0.43153736  0.26641348  0.27620985     0.82200
N658        N  0.43356466  0.22066154  0.28230506    -0.78500
C659        C  0.47290886  0.19630899  0.27546464     0.82300
N660        N  0.51234605  0.21908504  0.26525911    -0.80200
C661        C  0.19052319  0.52394307  0.20544563     0.79700
N662        N  0.18544083  0.56590936  0.22880846    -0.78600
C663        C  0.18420623  0.60609743  0.20292590     0.82200
N664        N  0.18904984  0.60258765  0.15560266    -0.78500
C665        C  0.19463064  0.56218520  0.13303880     0.82300
N666        N  0.19475993  0.52358561  0.15848057    -0.80200
C667        C  0.17595880  0.26636920  0.55642948     0.79700
N668        N  0.15625724  0.22503358  0.56040342    -0.78600
C669        C  0.14840014  0.19864832  0.52385614     0.82200
N670        N  0.15903482  0.21453711  0.48042695    -0.78500
C671        C  0.17853813  0.25630729  0.47355292     0.82300
N672        N  0.18843061  0.28255505  0.51205445    -0.80200
N673        N  0.03495889  0.97711167  0.46832213    -0.37100
N674        N  0.96737017  0.05351840  0.45953345    -0.57600
N675        N  0.96541724  0.06266964  0.55996673    -0.37100
N676        N  0.06373085  0.98786396  0.56062646    -0.57600
C677        C  0.02900078  0.97896052  0.42268231     0.26500
C678        C  0.06195980  0.94061298  0.47607830     0.26500
C679        C  0.93833867  0.09797069  0.54948869     0.26500
C680        C  0.99177074  0.07701559  0.59330186     0.26500
C681        C  0.96594865  0.03388299  0.41721905     0.35100
C682        C  0.92834837  0.07838314  0.46704687     0.35100
C683        C  0.04722097  0.94506591  0.55864059     0.35100
C684        C  0.03845132  0.00933356  0.59515158     0.35100
C685        C  0.05829085  0.94691678  0.40012553    -0.22400
C686        C  0.08050190  0.92352994  0.43407940    -0.22400
C687        C  0.94374409  0.13414085  0.57973150    -0.22400
C688        C  0.97924412  0.12141928  0.60635780    -0.22400
C689        C  0.92675098  0.04834523  0.39687570    -0.23400
C690        C  0.90311093  0.07700939  0.42820731    -0.23400
C691        C  0.01232821  0.93880470  0.59334101    -0.23400
C692        C  0.00666770  0.97990946  0.61646984    -0.23400
C693        C  0.98536490  0.99037516  0.40795651    -0.18800
C694        C  0.05576908  0.91709832  0.51888457    -0.18800
C695        C  0.03516691  0.05705124  0.59715383    -0.18800
C696        C  0.91389838  0.10004081  0.50951065    -0.18800
H697        H  0.05780929  0.93627805  0.36431292     0.14100
H698        H  0.10094567  0.89247285  0.42899864     0.14100
H699        H  0.92817733  0.16793996  0.57853028     0.14100
H700        H  0.99677495  0.14354990  0.62920171     0.14100
H701        H  0.91396503  0.03508855  0.36529279     0.12400
H702        H  0.86949182  0.09201248  0.42434493     0.12400
H703        H  0.98947520  0.91000458  0.59769240     0.12400
H704        H  0.97927548  0.98872849  0.64244953     0.12400
H705        H  0.01350452  0.99295526  0.49380703     0.25700
H706        H  0.96934825  0.03199479  0.54181371     0.25700
N707        N  0.44540047  0.04698247  0.97174359    -0.37100
N708        N  0.46006938  0.14373153  0.96739799    -0.57600
N709        N  0.48359323  0.14084996  0.06479912    -0.37100
N710        N  0.46181740  0.04383811  0.06759173    -0.57600
C711        C  0.42553578  0.06018573  0.93327788     0.26500
C712        C  0.42911668  0.00544505  0.98342335     0.26500
C713        C  0.47855851  0.18629028  0.05731777     0.26500
C714        C  0.47633179  0.13407586  0.11092696     0.26500
C715        C  0.46512767  0.13238169  0.92195849     0.35100
C716        C  0.48556194  0.18116423  0.97227326     0.35100
C717        C  0.46019963  0.99840362  0.05972539     0.35100
C718        C  0.47447438  0.04879314  0.11121995     0.35100
C719        C  0.39528698  0.02680719  0.92087835    -0.22400
C720        C  0.39806086  0.99174088  0.95238695    -0.22400
C721        C  0.46920268  0.20916098  0.09897882    -0.22400
C722        C  0.46818228  0.17624720  0.13300955    -0.22400
C723        C  0.49303246  0.16318042  0.89743111    -0.23400
C724        C  0.50574705  0.19457659  0.92944200    -0.23400
C725        C  0.47073603  0.97447459  0.09919001    -0.23400
C726        C  0.47949185  0.00652798  0.13199808    -0.23400
C727        C  0.44489581  0.09381192  0.90344385    -0.18800
C728        C  0.44639329  0.97866542  0.01832576    -0.18800
C729        C  0.47785696  0.09107557  0.13360430    -0.18800
C730        C  0.48346762  0.20708362  0.01354046    -0.18800
H731        H  0.37573290  0.02618251  0.89053634     0.14100
H732        H  0.38045077  0.95949092  0.95132074     0.14100
H733        H  0.46400116  0.24564924  0.10429555     0.14100
H734        H  0.46186675  0.18303797  0.16975391     0.14100
H735        H  0.50277636  0.16317102  0.86054489     0.12400
H736        H  0.52761882  0.22358210  0.92197137     0.12400
H737        H  0.47022349  0.93798678  0.10480036     0.12400
H738        H  0.48783053  0.99958472  0.16727439     0.12400
H739        H  0.47332973  0.06245102  0.98552628     0.25700
H740        H  0.49271359  0.11608160  0.03972333     0.25700
N741        N  0.89646663  0.51467599  0.03892490    -0.37100
N742        N  0.94846016  0.46762021  0.92224157    -0.57600
N743        N  0.04296044  0.49000027  0.94102080    -0.37100
N744        N  0.01967595  0.50758666  0.04018166    -0.57600
C745        C  0.89114749  0.48312759  0.00588672     0.26500
C746        C  0.92614537  0.49617328  0.06731477     0.26500
C747        C  0.04612102  0.48930798  0.89371665     0.26500
C748        C  0.08501328  0.50134018  0.95476838     0.26500
C749        C  0.90217123  0.47079947  0.92374773     0.35100
C750        C  0.96425684  0.47157183  0.87761511     0.35100
C751        C  0.00128896  0.51987068  0.08286287     0.35100
C752        C  0.06519426  0.51221717  0.04093882     0.35100
C753        C  0.91222431  0.44204793  0.01706075    -0.22400
C754        C  0.93554600  0.45084191  0.05552340    -0.22400
C755        C  0.09104724  0.49873987  0.87766892    -0.22400
C756        C  0.11538979  0.50607471  0.91590735    -0.22400
C757        C  0.88827649  0.47281676  0.87898407    -0.23400
C758        C  0.92757103  0.47347785  0.84964064    -0.23400
C759        C  0.03445594  0.53243543  0.11142667    -0.23400
C760        C  0.07528026  0.52569729  0.08554759    -0.23400
C761        C  0.87927996  0.49486777  0.96121507    -0.18800
C762        C  0.95416694  0.52274480  0.09345708    -0.18800
C763        C  0.09685330  0.51037249  0.00095888    -0.18800
C764        C  0.00940301  0.48516510  0.86373004    -0.18800
H765        H  0.91589474  0.41129021  0.99600353     0.14100
H766        H  0.96044835  0.42830837  0.07013897     0.14100
H767        H  0.10471902  0.50120408  0.84183308     0.14100
H768        H  0.15117777  0.51546375  0.91505820     0.14100
H769        H  0.85397024  0.48010976  0.86917254     0.12400
H770        H  0.92871665  0.48035515  0.81274821     0.12400
H771        H  0.02966406  0.54441429  0.14700464     0.12400
H772        H  0.10825842  0.53144960  0.09844610     0.12400
H773        H  0.88691776  0.54899681  0.03703535     0.25700
H774        H  0.01338131  0.48527702  0.96253706     0.25700
N775        N  0.44146834  0.60990838  0.96612332    -0.37100
N776        N  0.43761862  0.52788342  0.01817139    -0.57600
N777        N  0.53774727  0.52453022  0.01033672    -0.37100
N778        N  0.53941176  0.60372612  0.94667423    -0.57600
C779        C  0.39686590  0.59879096  0.96758549     0.26500
C780        C  0.44930932  0.63919525  0.93064141     0.26500
C781        C  0.52736118  0.48057422  0.02099988     0.26500
C782        C  0.58093017  0.52407025  0.99046854     0.26500
C783        C  0.39541410  0.54416385  0.03137720     0.35100
C784        C  0.44776597  0.49607187  0.04935368     0.35100
C785        C  0.53239120  0.64634987  0.93040452     0.35100
C786        C  0.58415007  0.60133380  0.95523215     0.35100
C787        C  0.37619064  0.62112177  0.93187616    -0.22400
C788        C  0.40949166  0.64735558  0.90890357    -0.22400
C789        C  0.56457849  0.45208240  0.00900191    -0.22400
C790        C  0.59882896  0.47965869  0.99030021    -0.22400
C791        C  0.37731358  0.52156626  0.07049672    -0.23400
C792        C  0.41037296  0.48989901  0.08127487    -0.23400
C793        C  0.57329037  0.67029491  0.92696527    -0.23400
C794        C  0.60627440  0.64147000  0.94244706    -0.23400
C795        C  0.37388316  0.57864786  0.00695703    -0.18800
C796        C  0.48847609  0.66579252  0.92537316    -0.18800
C797        C  0.60513572  0.56303541  0.97420407    -0.18800
C798        C  0.48471177  0.46543160  0.04041346    -0.18800
H799        H  0.34044862  0.62067754  0.92450268     0.14100
H800        H  0.40454745  0.67146241  0.88119197     0.14100
H801        H  0.56683637  0.41541566  0.01387204     0.14100
H802        H  0.63261568  0.46796130  0.97715590     0.14100
H803        H  0.34349434  0.52626049  0.08806721     0.12400
H804        H  0.40685434  0.46462589  0.10859305     0.12400
H805        H  0.57868806  0.70521570  0.91566898     0.12400
H806        H  0.64205011  0.64951836  0.94527360     0.12400
H807        H  0.46385913  0.60314875  0.99179280     0.25700
H808        H  0.51712578  0.55353604  0.01670641     0.25700
N809        N  0.95557820  0.56945469  0.55191219    -0.37100
N810        N  0.97639991  0.47177623  0.55679294    -0.57600
N811        N  0.02079996  0.47653103  0.46106954    -0.37100
N812        N  0.99427904  0.57173925  0.45916928    -0.57600
C813        C  0.93095183  0.55308799  0.58919127     0.26500
C814        C  0.93136847  0.60430020  0.53486642     0.26500
C815        C  0.01461881  0.43117208  0.46766069     0.26500
C816        C  0.02036534  0.48426429  0.41493175     0.26500
C817        C  0.97350238  0.48352867  0.60224337     0.35100
C818        C  0.00349425  0.43406056  0.55304123     0.35100
C819        C  0.98493700  0.61639367  0.46661273     0.35100
C820        C  0.01987679  0.56858130  0.41867530     0.35100
C821        C  0.89086803  0.57874609  0.59741517    -0.22400
C822        C  0.89068591  0.61087087  0.56216764    -0.22400
C823        C  0.01192293  0.40930380  0.42544992    -0.22400
C824        C  0.01539810  0.44287368  0.39198488    -0.22400
C825        C  0.99822710  0.45322234  0.62766240    -0.23400
C826        C  0.01676032  0.42122462  0.59652363    -0.23400
C827        C  0.00607999  0.64223989  0.43090191    -0.23400
C828        C  0.02775285  0.61164369  0.40008238    -0.23400
C829        C  0.95037613  0.52287963  0.62004651    -0.18800
C830        C  0.94755655  0.63109700  0.49697366    -0.18800
C831        C  0.02306004  0.52782153  0.39328932    -0.18800
C832        C  0.01269592  0.40957101  0.51110503    -0.18800
H833        H  0.86533765  0.57567419  0.62632977     0.14100
H834        H  0.86467676  0.63702649  0.55812141     0.14100
H835        H  0.00696508  0.37316150  0.41953992     0.14100
H836        H  0.01393983  0.43735764  0.35502470     0.14100
H837        H  0.00217303  0.45412022  0.66461549     0.12400
H838        H  0.03858658  0.39285147  0.60514941     0.12400
H839        H  0.00269301  0.67871933  0.42538595     0.12400
H840        H  0.04387206  0.61963951  0.36612625     0.12400
H841        H  0.98901969  0.55901294  0.54120244     0.25700
H842        H  0.02547379  0.50057930  0.48696393     0.25700
N843        N  0.54156542  0.10646434  0.58611367    -0.37100
N844        N  0.53401558  0.08314931  0.48873202    -0.57600
N845        N  0.45658509  0.14300274  0.49192409    -0.37100
N846        N  0.46787551  0.18037850  0.58542035    -0.57600
C847        C  0.58511754  0.09326064  0.57270116     0.26500
C848        C  0.54366528  0.13393021  0.62338270     0.26500
C849        C  0.45553775  0.12605579  0.44864366     0.26500
C850        C  0.42207177  0.17380685  0.49864564     0.26500
C851        C  0.56570062  0.05327659  0.50229866     0.35100
C852        C  0.51131212  0.06221178  0.45593484     0.35100
C853        C  0.47025987  0.17507185  0.63163424     0.35100
C854        C  0.42547937  0.19737243  0.57950631     0.35100
C855        C  0.61495632  0.11121003  0.60308563    -0.22400
C856        C  0.58831645  0.13620960  0.63580176    -0.22400
C857        C  0.42201978  0.14955251  0.42594977    -0.22400
C858        C  0.40032010  0.17915783  0.45806930    -0.22400
C859        C  0.56547385  0.01373584  0.47563541    -0.23400
C860        C  0.52996053  0.01896125  0.44687285    -0.23400
C861        C  0.43085080  0.19146811  0.65569765    -0.23400
C862        C  0.40315123  0.20683262  0.62261486    -0.23400
C863        C  0.59820057  0.06539221  0.53370856    -0.18800
C864        C  0.50502552  0.14971325  0.65086508    -0.18800
C865        C  0.40043762  0.18172285  0.54281974    -0.18800
C866        C  0.47356283  0.08221866  0.43544571    -0.18800
H867        H  0.65177673  0.10589536  0.60232467     0.14100
H868        H  0.60002370  0.15390671  0.66549152     0.14100
H869        H  0.41050534  0.14184953  0.39200891     0.14100
H870        H  0.36896213  0.19829073  0.45380914     0.14100
H871        H  0.58758388  0.98396230  0.47725190     0.12400
H872        H  0.51942953  0.99414929  0.42199770     0.12400
H873        H  0.42116615  0.18878006  0.69245712     0.12400
H874        H  0.36750915  0.21609450  0.62891013     0.12400
H875        H  0.51152468  0.09602405  0.57222716     0.25700
H876        H  0.47375389  0.12874955  0.51847416     0.25700
C877        C  0.13840862  0.13244001  0.57635075    -0.20800
C878        C  0.12860332  0.15312204  0.53390514    -0.07300
C879        C  0.09485240  0.13389361  0.50759761     0.13500
C880        C  0.06816934  0.09841166  0.52718822    -0.20800
C881        C  0.07289609  0.08358643  0.57313858    -0.07400
C882        C  0.11033917  0.09836720  0.59666397     0.13500
C883        C  0.11907970  0.08000332  0.64398909    -0.24200
H884        H  0.16599670  0.14554057  0.59552978     0.14800
H885        H  0.04092446  0.08473606  0.50802581     0.14800
C886        C  0.08429991  0.15247102  0.46080728    -0.24100
H887        H  0.08936993  0.08832137  0.66902453     0.05000
H888        H  0.15039254  0.09481959  0.65730257     0.08300
H889        H  0.12398945  0.04224181  0.64201135     0.08300
H890        H  0.11525535  0.14935678  0.43615662     0.08200
H891        H  0.07329878  0.18896709  0.46415109     0.08200
H892        H  0.05619275  0.13339827  0.44582568     0.05000
C893        C  0.14653436  0.57453757  0.01659736    -0.20800
C894        C  0.14361558  0.52731527  0.00839665    -0.07300
C895        C  0.17577776  0.49767110  0.02723992     0.13500
C896        C  0.20209730  0.51427274  0.06210824    -0.20800
C897        C  0.19257604  0.55802514  0.08160128    -0.07400
C898        C  0.16854617  0.59025430  0.05514870     0.13500
C899        C  0.15835945  0.63854209  0.07129080    -0.24200
H900        H  0.12301323  0.59740663  0.00024045     0.14800
H901        H  0.22354070  0.49017068  0.07955434     0.14800
C902        C  0.17802493  0.44729245  0.01609940    -0.24100
H903        H  0.14293612  0.65947325  0.04418193     0.05000
H904        H  0.19068385  0.65487792  0.07937727     0.08300
H905        H  0.13356492  0.63848473  0.10238807     0.08300
H906        H  0.15468904  0.43810239  0.98899904     0.08200
H907        H  0.16830798  0.42732119  0.04797431     0.08200
H908        H  0.21358853  0.43752907  0.00311725     0.05000
C909        C  0.51333618  0.12579924  0.24798642    -0.20800
C910        C  0.47116692  0.14709122  0.26286732    -0.07300
C911        C  0.43026191  0.12853458  0.24711886     0.13500
C912        C  0.43379591  0.10078819  0.20755344    -0.20800
C913        C  0.47657321  0.09180442  0.18454896    -0.07400
C914        C  0.51673693  0.09973622  0.20707282     0.13500
C915        C  0.56307992  0.08548416  0.18494810    -0.24200
H916        H  0.54464114  0.13669218  0.26245212     0.14800
H917        H  0.40307185  0.09244195  0.19047688     0.14800
C918        C  0.38275454  0.14383091  0.26484124    -0.24100
H919        H  0.59118633  0.09504472  0.20685354     0.05000
H920        H  0.56933826  0.10230525  0.15061006     0.08300
H921        H  0.56427010  0.04774845  0.18005228     0.08300
H922        H  0.37345426  0.17696754  0.24907472     0.08200
H923        H  0.38032532  0.14626263  0.30335978     0.08200
H924        H  0.35711214  0.11901940  0.25425840     0.05000
C925        C  0.52024314  0.78597373  0.93300979    -0.20800
C926        C  0.53555120  0.78161897  0.97823822    -0.07300
C927        C  0.51182802  0.75097074  0.00935867     0.13500
C928        C  0.48375922  0.71820389  0.99092634    -0.20800
C929        C  0.48281753  0.71337903  0.94255785    -0.07400
C930        C  0.49606606  0.75032424  0.91388301     0.13500
C931        C  0.49002706  0.74898011  0.86253916    -0.24200
H932        H  0.53429751  0.81236140  0.90993005     0.14800
H933        H  0.47034887  0.69100656  0.01343172     0.14800
C934        C  0.51840266  0.74775393  0.06053262    -0.24100
H935        H  0.50378780  0.78014793  0.84471962     0.05000
H936        H  0.45292004  0.74679342  0.85689637     0.08300
H937        H  0.50836861  0.71868948  0.84642142     0.08300
H938        H  0.53683514  0.77713393  0.07384146     0.08200
H939        H  0.53715539  0.71551215  0.06782299     0.08200
H940        H  0.48425606  0.74733288  0.08028584     0.05000
C941        C  0.71220261  0.52539830  0.01936688    -0.20800
C942        C  0.72710576  0.49807815  0.98082024    -0.07300
C943        C  0.71469623  0.51175926  0.93594219     0.13500
C944        C  0.67785294  0.54230261  0.93316125    -0.20800
C945        C  0.65530997  0.56005530  0.97360803    -0.07400
C946        C  0.67588932  0.55662743  0.01607530     0.13500
C947        C  0.65569270  0.58157442  0.05872975    -0.24200
H948        H  0.72429326  0.51794558  0.05321104     0.14800
H949        H  0.66280718  0.54720997  0.90022749     0.14800
C950        C  0.73552559  0.49133227  0.89105121    -0.24100
H951        H  0.67590763  0.57497366  0.08922686     0.05000
H952        H  0.61991359  0.57048116  0.06766646     0.08300
H953        H  0.65558284  0.61900967  0.05195761     0.08300
H954        H  0.72079151  0.45726586  0.88542220     0.08200
H955        H  0.77340409  0.48886906  0.89167072     0.08200
H956        H  0.72783156  0.51272593  0.86072444     0.05000
C957        C  0.34011845  0.68883603  0.05098132    -0.20800
C958        C  0.30790410  0.69788898  0.01856341    -0.07300
C959        C  0.28370038  0.66114773  0.00022573     0.13500
C960        C  0.29839510  0.61611888  0.00839691    -0.20800
C961        C  0.33849897  0.60841260  0.03116715    -0.07400
C962        C  0.35498293  0.64403922  0.05848156     0.13500
C963        C  0.39190879  0.63567783  0.09145441    -0.24200
H964        H  0.35552498  0.71700590  0.06845832     0.14800
H965        H  0.28412787  0.58807712  0.98971064     0.14800
C966        C  0.24389134  0.66908703  0.97073296    -0.24100
H967        H  0.40011167  0.66746432  0.11020168     0.05000
H968        H  0.42402989  0.62314049  0.07234953     0.08300
H969        H  0.37995127  0.60997850  0.11779922     0.08300
H970        H  0.25583647  0.68616634  0.93780710     0.08200
H971        H  0.21731822  0.69081490  0.98995791     0.08200
H972        H  0.22769307  0.63638011  0.96163836     0.05000
C973        C  0.53396718  0.11661891  0.76633191    -0.20800
C974        C  0.55045929  0.07362928  0.74998587    -0.07300
C975        C  0.52513454  0.05081591  0.71733289     0.13500
C976        C  0.49594127  0.07712838  0.69145939    -0.20800
C977        C  0.49622861  0.12513653  0.69539418    -0.07400
C978        C  0.50987032  0.14443370  0.73673783     0.13500
C979        C  0.50496643  0.19482770  0.74620477    -0.24200
H980        H  0.55020250  0.13252522  0.79474430     0.14800
H981        H  0.48263315  0.06174114  0.66114381     0.14800
C982        C  0.53452620  0.00190861  0.70270193    -0.24100
H983        H  0.52071167  0.20427293  0.77867406     0.05000
H984        H  0.46805185  0.20442542  0.75052817     0.08300
H985        H  0.52201807  0.21461179  0.71715720     0.08300
H986        H  0.55540190  0.98335726  0.72725919     0.08200
H987        H  0.55265562  0.00091579  0.66746553     0.08200
H988        H  0.50152590  0.98360633  0.70171633     0.05000
C989        C  0.97311014  0.33662604  0.52022180    -0.20800
C990        C  0.01521295  0.35919374  0.51434943    -0.07300
C991        C  0.05428188  0.33882414  0.53188398     0.13500
C992        C  0.04768012  0.30520343  0.56633867    -0.20800
C993        C  0.00260836  0.29580232  0.58429254    -0.07400
C994        C  0.96683637  0.30333502  0.55481201     0.13500
C995        C  0.92059511  0.28179863  0.56371837    -0.24200
H996        H  0.94353275  0.34991561  0.50370635     0.14800
H997        H  0.07653866  0.29494500  0.58566745     0.14800
C998        C  0.10105563  0.35875708  0.52068162    -0.24100
H999        H  0.91190532  0.26319548  0.53214077     0.05000
H1000       H  0.89404574  0.30865703  0.57240422     0.08300
H1001       H  0.92052171  0.25663897  0.59254395     0.08300
H1002       H  0.10067626  0.39609536  0.52799277     0.08200
H1003       H  0.11173212  0.35291686  0.48337531     0.08200
H1004       H  0.12688891  0.34319682  0.54214028     0.05000
C1005       C  0.95104795  0.60818206  0.71284229    -0.20800
C1006       C  0.98790291  0.63391614  0.69310055    -0.07300
C1007       C  0.02142397  0.61206825  0.66233364     0.13500
C1008       C  0.01258322  0.56842708  0.64573715    -0.20800
C1009       C  0.97067943  0.54723545  0.65814287    -0.07400
C1010       C  0.94278174  0.56421632  0.69609192     0.13500
C1011       C  0.90409136  0.53623201  0.71750027    -0.24200
H1012       H  0.92739930  0.62337408  0.73949665     0.14800
H1013       H  0.03513271  0.55392049  0.61774238     0.14800
C1014       C  0.06438053  0.63530061  0.64339518    -0.24100
H1015       H  0.88710880  0.55399843  0.74813997     0.05000
H1016       H  0.91788279  0.50289453  0.72918474     0.08300
H1017       H  0.87822754  0.52975518  0.69211764     0.08300
H1018       H  0.08498090  0.64567509  0.67231787     0.08200
H1019       H  0.05488750  0.66524306  0.62277238     0.08200
H1020       H  0.08645101  0.61244438  0.62008463     0.05000
C1021       C  0.38989980  0.10445397  0.57760297    -0.20800
C1022       C  0.36926358  0.14382765  0.55910705    -0.07300
C1023       C  0.32151955  0.15048953  0.56715825     0.13500
C1024       C  0.29730323  0.12220535  0.59964743    -0.20800
C1025       C  0.32042502  0.08835892  0.62406031    -0.07400
C1026       C  0.36590052  0.07650482  0.60973554     0.13500
C1027       C  0.39053676  0.03743702  0.63180495    -0.24200
H1028       H  0.42629559  0.09823232  0.57120046     0.14800
H1029       H  0.26142012  0.12963028  0.60960924     0.14800
C1030       C  0.29713657  0.18914771  0.54427271    -0.24100
H1031       H  0.42584666  0.03225459  0.61538747     0.05000
H1032       H  0.37154860  0.00523166  0.62735842     0.08300
H1033       H  0.39283772  0.04424715  0.66945096     0.08300
H1034       H  0.30054372  0.18431268  0.50601265     0.08200
H1035       H  0.25993096  0.19039139  0.55564246     0.08200
H1036       H  0.31230139  0.22245134  0.55300122     0.05000
C1037       C  0.45556212  0.41848646  0.98094444    -0.20800
C1038       C  0.47000654  0.41976593  0.02625945    -0.07300
C1039       C  0.45110895  0.38925389  0.05967651     0.13500
C1040       C  0.41106647  0.36642040  0.05049250    -0.20800
C1041       C  0.38979567  0.37432153  0.00881113    -0.07400
C1042       C  0.41373863  0.39868198  0.97244542     0.13500
C1043       C  0.39385860  0.40827223  0.92660014    -0.24200
H1044       H  0.47186608  0.44086218  0.95484773     0.14800
H1045       H  0.39450649  0.34534072  0.07754709     0.14800
C1046       C  0.47029109  0.38389853  0.10636329    -0.24100
H1047       H  0.41710285  0.42938020  0.90338086     0.05000
H1048       H  0.36079542  0.42739885  0.93260399     0.08300
H1049       H  0.38836151  0.37573232  0.90806564     0.08300
H1050       H  0.50164637  0.40458424  0.10895071     0.08200
H1051       H  0.47958084  0.34736916  0.11172494     0.08200
H1052       H  0.44423067  0.39475128  0.13436090     0.05000
C1053       C  0.93045803  0.74686336  0.45431363    -0.20800
C1054       C  0.92010023  0.73380332  0.40946870    -0.07300
C1055       C  0.89908650  0.69113690  0.40324713     0.13500
C1056       C  0.89752387  0.65959321  0.43969343    -0.20800
C1057       C  0.91961292  0.66904480  0.48006823    -0.07400
C1058       C  0.93118919  0.71433280  0.48988186     0.13500
C1059       C  0.94748237  0.72691221  0.53645583    -0.24200
H1060       H  0.93987539  0.78132501  0.46133876     0.14800
H1061       H  0.88621166  0.62502288  0.43376306     0.14800
C1062       C  0.88159708  0.67741129  0.35740845    -0.24100
H1063       H  0.97953826  0.70764258  0.54251748     0.05000
H1064       H  0.92063578  0.71831297  0.56425567     0.08300
H1065       H  0.95435372  0.76412826  0.53884565     0.08300
H1066       H  0.90978689  0.67879627  0.32941205     0.08200
H1067       H  0.85328902  0.70101490  0.34900417     0.08200
H1068       H  0.86791346  0.64208376  0.35839094     0.05000
C1069       C  0.69516168  0.03679569  0.45018449    -0.20800
C1070       C  0.69249618  0.07765460  0.42456093    -0.07300
C1071       C  0.67508779  0.11799604  0.44802289     0.13500
C1072       C  0.65378870  0.11388920  0.49264879    -0.20800
C1073       C  0.64528597  0.07058951  0.51185382    -0.07400
C1074       C  0.67117242  0.03278637  0.49381479     0.13500
C1075       C  0.67169805  0.98775334  0.51885636    -0.24200
H1076       H  0.71181744  0.00658185  0.43441623     0.14800
H1077       H  0.63569317  0.14346458  0.50824115     0.14800
C1078       C  0.67256263  0.16446230  0.42540082    -0.24100
H1079       H  0.70742069  0.97945607  0.52709600     0.05000
H1080       H  0.65970648  0.96002009  0.49656565     0.08300
H1081       H  0.64957252  0.98901648  0.55186689     0.08300
H1082       H  0.64781881  0.16378977  0.39804200     0.08200
H1083       H  0.70705267  0.17434087  0.41036831     0.08200
H1084       H  0.66027822  0.19162394  0.45054538     0.05000
C1085       C  0.36032535  0.04308244  0.40480010    -0.20800
C1086       C  0.36802952  0.04124950  0.35674325    -0.07300
C1087       C  0.41316899  0.03497897  0.33637876     0.13500
C1088       C  0.45016998  0.04430108  0.36329010    -0.20800
C1089       C  0.44183935  0.05303427  0.41099320    -0.07400
C1090       C  0.39723427  0.04577018  0.43242656     0.13500
C1091       C  0.38708342  0.04529582  0.48416088    -0.24200
H1092       H  0.32546168  0.04363337  0.42073706     0.14800
H1093       H  0.48472827  0.04667503  0.34703190     0.14800
C1094       C  0.42172862  0.01783227  0.28731433    -0.24100
H1095       H  0.36370055  0.07443901  0.49431714     0.05000
H1096       H  0.41877945  0.04730570  0.50291198     0.08300
H1097       H  0.36974882  0.01291363  0.49462489     0.08300
H1098       H  0.40172098  0.03837132  0.26364429     0.08200
H1099       H  0.41002137  0.98188422  0.28554286     0.08200
H1100       H  0.45875555  0.01868272  0.27528219     0.05000
C1101       C  0.04458103  0.52325068  0.30857007    -0.20800
C1102       C  0.01064907  0.53021539  0.34467254    -0.07300
C1103       C  0.96390034  0.52699189  0.33567626     0.13500
C1104       C  0.95275272  0.50517981  0.29504098    -0.20800
C1105       C  0.98750260  0.48855423  0.26309998    -0.07400
C1106       C  0.03287290  0.50448226  0.26643410     0.13500
C1107       C  0.07049681  0.49590952  0.22881809    -0.24200
H1108       H  0.08037472  0.52821344  0.31467916     0.14800
H1109       H  0.91771263  0.49441409  0.29263480     0.14800
C1110       C  0.92604780  0.54174989  0.37112772    -0.24100
H1111       H  0.08704435  0.52879178  0.21873379     0.05000
H1112       H  0.05715958  0.48078989  0.19725940     0.08300
H1113       H  0.09647877  0.47210256  0.24192005     0.08300
H1114       H  0.92969582  0.57873605  0.37852333     0.08200
H1115       H  0.92796093  0.52196324  0.40375409     0.08200
H1116       H  0.89152418  0.53672125  0.35829365     0.05000
C1117       C  0.44191676  0.02109021  0.80062639    -0.20800
C1118       C  0.47861681  0.99177905  0.81057876    -0.07300
C1119       C  0.51261987  0.00827062  0.83893825     0.13500
C1120       C  0.50530837  0.05042408  0.86138068    -0.20800
C1121       C  0.46398445  0.07482357  0.85850993    -0.07400
C1122       C  0.43473314  0.06306330  0.82391207     0.13500
C1123       C  0.39397757  0.09261416  0.81415318    -0.24200
H1124       H  0.41743072  0.01024874  0.77650215     0.14800
H1125       H  0.52836874  0.06065767  0.88721113     0.14800
C1126       C  0.55475076  0.98073979  0.84935970    -0.24100
H1127       H  0.39696005  0.10307870  0.77706337     0.05000
H1128       H  0.39200698  0.12416204  0.83583541     0.08300
H1129       H  0.36175501  0.07324468  0.82113276     0.08300
H1130       H  0.57684250  0.97483854  0.81685325     0.08200
H1131       H  0.54458397  0.94758370  0.86560202     0.08200
H1132       H  0.57591333  0.99882161  0.87388796     0.05000
C1133       C  0.04650572  0.51173516  0.73865643    -0.20800
C1134       C  0.06265795  0.55622217  0.74648370    -0.07300
C1135       C  0.04092321  0.58150274  0.78378299     0.13500
C1136       C  0.01797223  0.55750020  0.81986583    -0.20800
C1137       C  0.01610732  0.50946391  0.81864245    -0.07400
C1138       C  0.02704800  0.48651140  0.77631202     0.13500
C1139       C  0.02330132  0.43537302  0.77249591    -0.24200
H1140       H  0.05971917  0.49340062  0.70767304     0.14800
H1141       H  0.00673478  0.57617776  0.85095567     0.14800
C1142       C  0.04668052  0.63220407  0.79006239    -0.24100
H1143       H  0.04535661  0.41847027  0.79734510     0.05000
H1144       H  0.03455480  0.42320309  0.73695997     0.08300
H1145       H  0.98718230  0.42495835  0.78033469     0.08300
H1146       H  0.06494953  0.64796282  0.75935097     0.08200
H1147       H  0.06616205  0.63877856  0.82096648     0.08200
H1148       H  0.01234174  0.64905313  0.79537176     0.05000
C1149       C  0.42863711  0.29022417  0.95005664    -0.20800
C1150       C  0.46948965  0.30690581  0.92779927    -0.07300
C1151       C  0.50825603  0.31107395  0.95437663     0.13500
C1152       C  0.50988968  0.28451674  0.99472186    -0.20800
C1153       C  0.47297726  0.25628718  0.00824406    -0.07400
C1154       C  0.42979785  0.26636746  0.99179356     0.13500
C1155       C  0.38678361  0.24483865  0.01347582    -0.24200
H1156       H  0.39704610  0.29086156  0.93260936     0.14800
H1157       H  0.54237754  0.27944265  0.01002112     0.14800
C1158       C  0.55018564  0.33724191  0.93758967    -0.24100
H1159       H  0.35599046  0.25575352  0.99570567     0.05000
H1160       H  0.38159086  0.25546252  0.05048508     0.08300
H1161       H  0.38952876  0.20692544  0.01153362     0.08300
H1162       H  0.54002973  0.36961308  0.92069693     0.08200
H1163       H  0.57231696  0.31594457  0.91299876     0.08200
H1164       H  0.57074200  0.34627239  0.96706448     0.05000
C1165       C  0.89018917  0.58482158  0.87991574    -0.20800
C1166       C  0.84371168  0.58632902  0.87103229    -0.07300
C1167       C  0.81075414  0.58248565  0.90890553     0.13500
C1168       C  0.82294103  0.55786520  0.94805231    -0.20800
C1169       C  0.86855683  0.54404299  0.95064611    -0.07400
C1170       C  0.90190480  0.56890798  0.92346032     0.13500
C1171       C  0.94923908  0.57480802  0.93925824    -0.24200
H1172       H  0.91656909  0.59374050  0.85318237     0.14800
H1173       H  0.79767213  0.54806814  0.97505341     0.14800
C1174       C  0.76466867  0.60565047  0.90758144    -0.24100
H1175       H  0.95765552  0.61176248  0.93950315     0.05000
H1176       H  0.97474348  0.55633584  0.91632877     0.08300
H1177       H  0.95185075  0.56116336  0.97479579     0.08300
H1178       H  0.74541438  0.59130369  0.87934492     0.08200
H1179       H  0.76963722  0.64272165  0.90088324     0.08200
H1180       H  0.74447790  0.60275426  0.94151484     0.05000
C1181       C  0.87174341  0.61570861  0.12349363    -0.20800
C1182       C  0.85274163  0.59576850  0.16437184    -0.07300
C1183       C  0.88059814  0.56801098  0.19098879     0.13500
C1184       C  0.92019114  0.54811188  0.16917938    -0.20800
C1185       C  0.93362938  0.55972321  0.12329171    -0.07400
C1186       C  0.91405444  0.59918038  0.10365889     0.13500
C1187       C  0.93524981  0.62160173  0.06041650    -0.24200
H1188       H  0.85185769  0.64010594  0.10470218     0.14800
H1189       H  0.93726592  0.52013921  0.18589916     0.14800
C1190       C  0.86619191  0.55572508  0.24052473    -0.24100
H1191       H  0.94364692  0.65754685  0.06860885     0.05000
H1192       H  0.91086740  0.62218071  0.03268203     0.08300
H1193       H  0.96748793  0.60392179  0.04716747     0.08300
H1194       H  0.86091586  0.51822012  0.24342189     0.08200
H1195       H  0.83400846  0.57370338  0.25356399     0.08200
H1196       H  0.89316824  0.56671280  0.26303500     0.05000
C1197       C  0.41464748  0.90072502  0.02113480    -0.20800
C1198       C  0.45261017  0.92876816  0.01167269    -0.07300
C1199       C  0.49719647  0.90976159  0.01409965     0.13500
C1200       C  0.50219224  0.87081350  0.04146240    -0.20800
C1201       C  0.46291242  0.85050634  0.06291134    -0.02600
C1202       C  0.42051051  0.85914543  0.04384322     0.13500
C1203       C  0.38008325  0.82849407  0.05301821    -0.24200
H1204       H  0.38020976  0.91328400  0.01654833     0.14800
H1205       H  0.53594624  0.86187199  0.05217805     0.14800
C1206       C  0.53947898  0.93429589  0.99510592    -0.24100
H1207       H  0.36705828  0.81854605  0.01932513     0.05000
H1208       H  0.35260822  0.84690674  0.07452557     0.08300
H1209       H  0.38972002  0.79665643  0.07115670     0.08300
H1210       H  0.53063253  0.96493223  0.97463459     0.08200
H1211       H  0.56079011  0.91080808  0.97177873     0.08200
H1212       H  0.55985166  0.94521527  0.02409183     0.05000
C1213       C  0.90847445  0.88563314  0.40562346    -0.20800
C1214       C  0.89200331  0.88269151  0.45294146    -0.07300
C1215       C  0.90656503  0.91521369  0.48460328     0.13500
C1216       C  0.93399652  0.95096642  0.46769912    -0.20800
C1217       C  0.95114061  0.95385643  0.42066160    -0.07400
C1218       C  0.93812679  0.92044721  0.38918966     0.13500
C1219       C  0.95402658  0.92105376  0.33836432    -0.24200
H1220       H  0.89668153  0.86157113  0.38077539     0.14800
H1221       H  0.94209000  0.97692951  0.49211416     0.14800
C1222       C  0.89235130  0.91422151  0.53600343    -0.24100
H1223       H  0.92374772  0.92267741  0.31725421     0.05000
H1224       H  0.97403248  0.88925079  0.32936647     0.08300
H1225       H  0.97598078  0.95079253  0.32891568     0.08300
H1226       H  0.90339631  0.88119931  0.55098383     0.08200
H1227       H  0.85458787  0.91892691  0.54190769     0.08200
H1228       H  0.90844116  0.94200195  0.55525408     0.05000
C1229       C  0.87866848  0.17237636  0.48932232    -0.20800
C1230       C  0.87340169  0.12958553  0.51021650    -0.07300
C1231       C  0.82961291  0.11375214  0.52630304     0.13500
C1232       C  0.79136809  0.14161625  0.52038980    -0.20800
C1233       C  0.79651911  0.18400043  0.49836570    -0.07400
C1234       C  0.84063232  0.20021113  0.48349031     0.13500
C1235       C  0.84812139  0.24727116  0.46303563    -0.24200
H1236       H  0.91273244  0.18364741  0.47718300     0.14800
H1237       H  0.75742969  0.13028913  0.53290295     0.14800
C1238       C  0.82205231  0.06768198  0.54893963    -0.24100
H1239       H  0.88508777  0.25418045  0.45432172     0.05000
H1240       H  0.83429729  0.27379472  0.48815801     0.08300
H1241       H  0.83062564  0.25023829  0.43052795     0.08300
H1242       H  0.85433788  0.04778873  0.55175633     0.08200
H1243       H  0.79909884  0.04709174  0.52831687     0.08200
H1244       H  0.80546433  0.07255886  0.58454950     0.05000
C1245       C  0.04001736  0.78881149  0.48993230    -0.20800
C1246       C  0.06235778  0.77222722  0.52781233    -0.07300
C1247       C  0.05189909  0.79726655  0.56865570     0.13500
C1248       C  0.05259470  0.84476569  0.56521099    -0.20800
C1249       C  0.04726490  0.86604143  0.52208935    -0.07400
C1250       C  0.03397204  0.83650422  0.48543855     0.13500
C1251       C  0.01300205  0.85221289  0.44241075    -0.24200
H1252       H  0.03640714  0.76660505  0.46027961     0.14800
H1253       H  0.05906212  0.86413416  0.59598451     0.14800
C1254       C  0.05205955  0.77571042  0.61496655    -0.24100
H1255       H  0.03747047  0.84736752  0.41141322     0.05000
H1256       H  0.98240503  0.83269694  0.43589624     0.08300
H1257       H  0.00083865  0.88751147  0.44661866     0.08300
H1258       H  0.08086365  0.78960673  0.63328275     0.08200
H1259       H  0.05605964  0.73824191  0.61176897     0.08200
H1260       H  0.01878128  0.78406100  0.63428390     0.05000
loop_ 
_geom_bond_atom_site_label_1 
_geom_bond_atom_site_label_2 
_geom_bond_distance 
_geom_bond_site_symmetry_2 
_ccdc_geom_bond_type 
C1            N2   1.350       .  A
C1            N6   1.381       .  A
C1          C444   1.493       .  S
N2            C3   1.352       .  A
C3            N4   1.349       .  A
C3         C1246   1.487       .  S
N4            C5   1.350       .  A
C5            N6   1.386       .  A
C5          C161   1.489       .  S
C7            N8   1.347       .  A
C7           N12   1.387       .  A
C7          C523   1.481       .  S
N8            C9   1.340       .  A
C9           N10   1.341       .  A
C9         C1233   1.446       .  S
N10          C11   1.346       .  A
C11          N12   1.385       .  A
C11         C222   1.487       .  S
C13          N14   1.390       .  A
C13          N18   1.362       .  A
C13         C599   1.509       .  S
N14          C15   1.384       .  A
C15          N16   1.342       .  A
C15         C293   1.499       .  S
N16          C17   1.339       .  A
C17          N18   1.359       .  A
C17        C1214   1.479       .  S
C19          N20   1.384       .  A
C19          N24   1.345       .  A
C19         C155   1.493       .  S
N20          C21   1.385       .  A
C21          N22   1.357       .  A
C21         C299   1.497       .  S
N22          C23   1.353       .  A
C23          N24   1.347       .  A
C23        C1201   1.478       .  S
C25          N26   1.386       .  A
C25          N30   1.346       .  A
C25         C235   1.504       .  S
N26          C27   1.388       .  A
C27          N28   1.356       .  A
C27         C314   1.488       .  S
N28          C29   1.344       .  A
C29          N30   1.347       .  A
C29        C1182   1.460       .  S
C31          N32   1.390       .  A
C31          N36   1.358       .  A
C31         C535   1.519       .  S
N32          C33   1.388       .  A
C33          N34   1.355       .  A
C33         C614   1.499       .  S
N34          C35   1.343       .  A
C35          N36   1.356       .  A
C35        C1166   1.467       .  S
C37          N38   1.352       .  A
C37          N42   1.390       .  A
C37         C385   1.497       .  S
N38          C39   1.346       .  A
C39          N40   1.346       .  A
C39        C1150   1.483       .  S
N40          C41   1.358       .  A
C41          N42   1.386       .  A
C41         C522   1.516       .  S
C43          N44   1.357       .  A
C43          N48   1.388       .  A
C43         C445   1.499       .  S
N44          C45   1.350       .  A
C45          N46   1.344       .  A
C45        C1134   1.480       .  S
N46          C47   1.343       .  A
C47          N48   1.386       .  A
C47         C372   1.495       .  S
C49          N50   1.360       .  A
C49          N54   1.381       .  A
C49         C457   1.496       .  S
N50          C51   1.354       .  A
C51          N52   1.346       .  A
C51        C1118   1.481       .  S
N52          C53   1.349       .  A
C53          N54   1.378       .  A
C53         C593   1.491       .  S
C55          N56   1.341       .  A
C55          N60   1.387   1_455  A
C55          C89   1.499       .  S
N56          C57   1.341   1_455  A
C57          N58   1.356       .  A
C57        C1105   1.478       .  S
N58          C59   1.360       .  A
C59          N60   1.393       .  A
C59         C242   1.509       .  S
Zr61         O62   2.440       .  S
Zr61         O63   2.528       .  S
Zr61         O64   2.496       .  S
Zr61         O67   2.501       .  S
Zr61         O69   2.400       .  S
Zr61         O70   2.378       .  S
Zr61         O71   2.438       .  S
Zr61         O72   2.420       .  S
O62         H118   0.990       .  S
O62         H126   0.990       .  S
O63          C83   1.305       .  A
O64          C85   1.294       .  A
O65         Zr75   2.443       .  S
O65          C84   1.282       .  A
O66         Zr74   2.501       .  S
O66          C85   1.298       .  A
O67          C84   1.300       .  A
O68         Zr76   2.450       .  S
O68          C83   1.283       .  A
O69         Zr74   2.412       .  S
O69         Zr76   2.392       .  S
O70         Zr75   2.402       .  S
O70         Zr76   2.387       .  S
O70         H105   0.966       .  S
O71         Zr74   2.410       .  S
O71         Zr91   2.398       .  S
O71         H108   0.964       .  S
O72         Zr75   2.392       .  S
O72         Zr91   2.421       .  S
Zr73         O98   2.443       .  S
Zr73         O92   2.513       .  S
Zr73        O100   2.520       .  S
Zr73         O88   2.480       .  S
Zr73         O79   2.409       .  S
Zr73         O80   2.439       .  S
Zr73         O81   2.391       .  S
Zr73         O82   2.394       .  S
Zr74         O93   2.434       .  S
Zr74         O86   2.434       .  S
Zr74         O87   2.482       .  S
Zr74         O80   2.417       .  S
Zr74         O81   2.420       .  S
Zr75         O77   2.439       .  S
Zr75         O99   2.442       .  S
Zr75        O101   2.416       .  S
Zr75         O79   2.393       .  S
Zr75         O82   2.397       .  S
Zr76        O102   2.436       .  S
Zr76        O103   2.435       .  S
Zr76         O78   2.439       .  S
Zr76         O79   2.401       .  S
Zr76         O80   2.409       .  S
O77         H114   0.990       .  S
O78         H109   0.990       .  S
O78         H123   0.989       .  S
O80         H106   0.966       .  S
O81         Zr91   2.382       .  S
O82         Zr91   2.388       .  S
O82         H107   0.965       .  S
C83         C127   1.524       .  S
C84         C657   1.500       .  S
C85         C671   1.510       .  S
O86         H122   0.990       .  S
O87          C89   1.292       .  A
O88          C89   1.294       .  A
O90         Zr91   2.434       .  S
O90         H119   0.990       .  S
Zr91         O94   2.439       .  S
Zr91         O95   2.437       .  S
Zr91         O96   2.448       .  S
O92          C97   1.303       .  A
O93         H110   0.990       .  S
O93         H125   0.990       .  S
O94         H111   0.991       .  S
O95         H115   0.990       .  S
O95         H124   0.990       .  S
O96          C97   1.280       .  A
C97         C661   1.512       .  S
O98         H117   0.990       .  S
O98         H121   0.991       .  S
O99         H113   0.990       .  S
O99         H120   0.990       .  S
O100        C104   1.295       .  A
O101        C104   1.284       .  A
O102        H112   0.990       .  S
O103        H116   0.990       .  S
C104        C345   1.507       .  S
C127        N128   1.361       .  A
C127        N132   1.389       .  A
N128        C129   1.359       .  A
C129        N130   1.340       .  A
C129       C1086   1.458       .  S
N130        C131   1.346       .  A
C131        N132   1.386       .  A
C131        C157   1.489   1_545  S
Zr133       O134   2.439       .  S
Zr133       O135   2.501       .  S
Zr133       O136   2.483       .  S
Zr133       O139   2.479       .  S
Zr133       O141   2.388       .  S
Zr133       O142   2.386       .  S
Zr133       O143   2.424       .  S
Zr133       O144   2.421       .  S
O134        H190   0.990       .  S
O134        H198   0.990       .  S
O135        C155   1.300       .  A
O136        C157   1.292       .  A
O137       Zr147   2.456       .  S
O137        C156   1.284       .  A
O138       Zr146   2.459       .  S
O138        C157   1.290       .  A
O139        C156   1.290       .  A
O140       Zr148   2.425       .  S
O140        C155   1.278       .  A
O141       Zr146   2.395       .  S
O141       Zr148   2.384       .  S
O142       Zr147   2.400       .  S
O142       Zr148   2.385       .  S
O142        H177   0.967       .  S
O143       Zr146   2.394       .  S
O143       Zr163   2.403       .  S
O143        H180   0.964       .  S
O144       Zr147   2.376       .  S
O144       Zr163   2.398       .  S
Zr145       O170   2.441       .  S
Zr145       O164   2.538       .  S
Zr145       O172   2.576       .  S
Zr145       O160   2.503       .  S
Zr145       O151   2.404       .  S
Zr145       O152   2.440       .  S
Zr145       O153   2.401       .  S
Zr145       O154   2.397       .  S
Zr146       O165   2.424       .  S
Zr146       O158   2.436       .  S
Zr146       O159   2.442       .  S
Zr146       O152   2.414       .  S
Zr146       O153   2.414       .  S
Zr147       O149   2.437       .  S
Zr147       O171   2.425       .  S
Zr147       O173   2.414       .  S
Zr147       O151   2.388       .  S
Zr147       O154   2.394       .  S
Zr148       O174   2.437       .  S
Zr148       O175   2.435       .  S
Zr148       O150   2.438       .  S
Zr148       O151   2.396       .  S
Zr148       O152   2.387       .  S
O149        H186   0.990       .  S
O150        H181   0.990       .  S
O150        H195   0.990       .  S
O152        H178   0.964       .  S
O153       Zr163   2.390       .  S
O154       Zr163   2.381       .  S
O154        H179   0.965       .  S
C156        C641   1.482       .  S
O158        H194   0.990       .  S
O159        C161   1.284       .  A
O160        C161   1.301       .  A
O162       Zr163   2.437       .  S
O162        H191   0.990       .  S
Zr163       O166   2.432       .  S
Zr163       O167   2.437       .  S
Zr163       O168   2.434       .  S
O164        C169   1.305       .  A
O165        H182   0.990       .  S
O165        H197   0.990       .  S
O166        H183   0.990       .  S
O167        H187   0.990       .  S
O167        H196   0.990       .  S
O168        C169   1.281       .  A
C169        C337   1.520   1_455  S
O170        H189   0.990       .  S
O170        H193   0.990       .  S
O171        H185   0.988       .  S
O171        H192   0.988       .  S
O172        C176   1.308       .  A
O173        C176   1.284       .  A
O174        H184   0.990       .  S
O175        H188   0.990       .  S
C176        C663   1.536       .  S
Zr199       O200   2.443       .  S
Zr199       O201   2.503       .  S
Zr199       O202   2.455       .  S
Zr199       O205   2.477       .  S
Zr199       O207   2.392       .  S
Zr199       O208   2.382       .  S
Zr199       O209   2.429       .  S
Zr199       O210   2.411       .  S
O200        H256   0.990       .  S
O200        H264   0.990       .  S
O201        C221   1.299       .  A
O202        C223   1.288       .  A
O203       Zr213   2.453       .  S
O203        C222   1.290       .  A
O204       Zr212   2.512       .  S
O204        C223   1.298       .  A
O205        C222   1.290       .  A
O206       Zr214   2.445       .  S
O206        C221   1.279       .  A
O207       Zr212   2.424       .  S
O207       Zr214   2.389       .  S
O208       Zr213   2.407       .  S
O208       Zr214   2.391       .  S
O208        H243   0.966       .  S
O209       Zr212   2.412       .  S
O209       Zr229   2.397       .  S
O209        H246   0.965       .  S
O210       Zr213   2.399       .  S
O210       Zr229   2.409       .  S
Zr211       O236   2.444       .  S
Zr211       O230   2.495       .  S
Zr211       O238   2.500       .  S
Zr211       O226   2.440       .  S
Zr211       O217   2.403       .  S
Zr211       O218   2.432       .  S
Zr211       O219   2.389       .  S
Zr211       O220   2.374       .  S
Zr212       O231   2.440       .  S
Zr212       O224   2.434       .  S
Zr212       O225   2.512       .  S
Zr212       O218   2.417       .  S
Zr212       O219   2.410       .  S
Zr213       O215   2.437       .  S
Zr213       O237   2.434       .  S
Zr213       O239   2.464       .  S
Zr213       O217   2.391       .  S
Zr213       O220   2.405       .  S
Zr214       O240   2.436       .  S
Zr214       O241   2.435       .  S
Zr214       O216   2.440       .  S
Zr214       O217   2.411       .  S
Zr214       O218   2.394       .  S
O215        H252   0.990       .  S
O216        H247   0.990       .  S
O216        H261   0.989       .  S
O218        H244   0.964       .  S
O219       Zr229   2.383       .  S
O220       Zr229   2.395       .  S
O220        H245   0.966       .  S
C221        C265   1.507       .  S
C223        C655   1.501       .  S
O224        H260   0.990       .  S
O225        C227   1.299       .  A
O226        C227   1.285       .  A
C227        C645   1.494       .  S
O228       Zr229   2.437       .  S
O228        H257   0.990       .  S
Zr229       O232   2.437       .  S
Zr229       O233   2.437       .  S
Zr229       O234   2.439       .  S
O230        C235   1.299       .  A
O231        H248   0.990       .  S
O231        H263   0.990       .  S
O232        H249   0.990       .  S
O233        H253   0.990       .  S
O233        H262   0.990       .  S
O234        C235   1.279       .  A
O236        H255   0.991       .  S
O236        H259   0.991       .  S
O237        H251   0.990       .  S
O237        H258   0.989       .  S
O238        C242   1.298       .  A
O239        C242   1.287       .  A
O240        H250   0.990       .  S
O241        H254   0.990       .  S
C265        N266   1.346       .  A
C265        N270   1.388       .  A
N266        C267   1.344       .  A
C267        N268   1.355       .  A
C267       C1070   1.485       .  S
N268        C269   1.359       .  A
C269        N270   1.390       .  A
C269        C295   1.510   1_545  S
Zr271       O272   2.441       .  S
Zr271       O273   2.484       .  S
Zr271       O274   2.487       .  S
Zr271       O277   2.475       .  S
Zr271       O279   2.384       .  S
Zr271       O280   2.382       .  S
Zr271       O281   2.420       .  S
Zr271       O282   2.419       .  S
O272        H328   0.991       .  S
O272        H336   0.990       .  S
O273        C293   1.299       .  A
O274        C295   1.296       .  A
O275       Zr285   2.456       .  S
O275        C294   1.288       .  A
O276       Zr284   2.491       .  S
O276        C295   1.294       .  A
O277        C294   1.292       .  A
O278       Zr286   2.447       .  S
O278        C293   1.281       .  A
O279       Zr284   2.411       .  S
O279       Zr286   2.384       .  S
O280       Zr285   2.386       .  S
O280       Zr286   2.387       .  S
O280        H315   0.966       .  S
O281       Zr284   2.415       .  S
O281       Zr301   2.403       .  S
O281        H318   0.966       .  S
O282       Zr285   2.394       .  S
O282       Zr301   2.406       .  S
Zr283       O308   2.439       .  S
Zr283       O302   2.485       .  S
Zr283       O310   2.501       .  S
Zr283       O298   2.461       .  S
Zr283       O289   2.415       .  S
Zr283       O290   2.431       .  S
Zr283       O291   2.391       .  S
Zr283       O292   2.398       .  S
Zr284       O303   2.439       .  S
Zr284       O296   2.434       .  S
Zr284       O297   2.492       .  S
Zr284       O290   2.414       .  S
Zr284       O291   2.407       .  S
Zr285       O287   2.440       .  S
Zr285       O309   2.441       .  S
Zr285       O311   2.441       .  S
Zr285       O289   2.396       .  S
Zr285       O292   2.403       .  S
Zr286       O312   2.435       .  S
Zr286       O313   2.435       .  S
Zr286       O288   2.439       .  S
Zr286       O289   2.400       .  S
Zr286       O290   2.410       .  S
O287        H324   0.990       .  S
O288        H319   0.990       .  S
O288        H333   0.991       .  S
O290        H316   0.965       .  S
O291       Zr301   2.382       .  S
O292       Zr301   2.382       .  S
O292        H317   0.967       .  S
C294        C341   1.490       .  S
O296        H332   0.990       .  S
O297        C299   1.295       .  A
O298        C299   1.290       .  A
O300       Zr301   2.439       .  S
O300        H329   0.990       .  S
Zr301       O304   2.437       .  S
Zr301       O305   2.440       .  S
Zr301       O306   2.436       .  S
O302        C307   1.296       .  A
O303        H320   0.991       .  S
O303        H335   0.990       .  S
O304        H321   0.989       .  S
O305        H325   0.990       .  S
O305        H334   0.990       .  S
O306        C307   1.282       .  A
C307        C651   1.496       .  S
O308        H327   0.990       .  S
O308        H331   0.990       .  S
O309        H323   0.990       .  S
O309        H330   0.989       .  S
O310        C314   1.292       .  A
O311        C314   1.277       .  A
O312        H322   0.990       .  S
O313        H326   0.991       .  S
C337        N338   1.367       .  A
C337        N342   1.386       .  A
N338        C339   1.365       .  A
C339        N340   1.345       .  A
C339       C1054   1.472       .  S
N340        C341   1.347       .  A
C341        N342   1.380       .  A
C343        N344   1.392   1_556  A
C343        N348   1.356       .  A
C343        C392   1.492       .  S
N344        C345   1.385       .  A
C345        N346   1.351       .  A
N346        C347   1.340       .  A
C347        N348   1.346   1_554  A
C347       C1041   1.475       .  S
Zr349       O350   2.439       .  S
Zr349       O351   2.470       .  S
Zr349       O352   2.546       .  S
Zr349       O355   2.488       .  S
Zr349       O357   2.384       .  S
Zr349       O358   2.408       .  S
Zr349       O359   2.410       .  S
Zr349       O360   2.419       .  S
O350        H406   0.991       .  S
O350        H414   0.990       .  S
O351        C371   1.292       .  A
O352        C373   1.301       .  A
O353       Zr363   2.456       .  S
O353        C372   1.286       .  A
O354       Zr362   2.423       .  S
O354        C373   1.286       .  A
O355        C372   1.299       .  A
O356       Zr364   2.446       .  S
O356        C371   1.281       .  A
O357       Zr362   2.382       .  S
O357       Zr364   2.385       .  S
O358       Zr363   2.413       .  S
O358       Zr364   2.382       .  S
O358        H393   0.967       .  S
O359       Zr362   2.400       .  S
O359       Zr379   2.397       .  S
O359        H396   0.966       .  S
O360       Zr363   2.408       .  S
O360       Zr379   2.393       .  S
Zr361       O386   2.439       .  S
Zr361       O380   2.504       .  S
Zr361       O388   2.480       .  S
Zr361       O376   2.553       .  S
Zr361       O367   2.434       .  S
Zr361       O368   2.416       .  S
Zr361       O369   2.374       .  S
Zr361       O370   2.401       .  S
Zr362       O381   2.411       .  S
Zr362       O374   2.434       .  S
Zr362       O375   2.426       .  S
Zr362       O368   2.400       .  S
Zr362       O369   2.399       .  S
Zr363       O365   2.440       .  S
Zr363       O387   2.435       .  S
Zr363       O389   2.466       .  S
Zr363       O367   2.393       .  S
Zr363       O370   2.395       .  S
Zr364       O390   2.439       .  S
Zr364       O391   2.439       .  S
Zr364       O366   2.445       .  S
Zr364       O367   2.401       .  S
Zr364       O368   2.414       .  S
O365        H402   0.990       .  S
O366        H397   0.990       .  S
O366        H411   0.989       .  S
O368        H394   0.964       .  S
O369       Zr379   2.398       .  S
O370       Zr379   2.378       .  S
O370        H395   0.965       .  S
C371        C493   1.488       .  S
C373        C667   1.517       .  S
O374        H410   0.990       .  S
O375        C377   1.276       .  A
O376        C377   1.304       .  A
C377        C415   1.502       .  S
O378       Zr379   2.437       .  S
O378        H407   0.990       .  S
Zr379       O382   2.430       .  S
Zr379       O383   2.436       .  S
Zr379       O384   2.434       .  S
O380        C385   1.301       .  A
O381        H398   0.989       .  S
O381        H413   0.988       .  S
O382        H399   0.991       .  S
O383        H403   0.990       .  S
O383        H412   0.990       .  S
O384        C385   1.279       .  A
O386        H405   0.990       .  S
O386        H409   0.990       .  S
O387        H401   0.990       .  S
O387        H408   0.990       .  S
O388        C392   1.295       .  A
O389        C392   1.290       .  A
O390        H400   0.990       .  S
O391        H404   0.990       .  S
C415        N416   1.348       .  A
C415        N420   1.392       .  A
N416        C417   1.342       .  A
C417        N418   1.347       .  A
C417       C1025   1.465       .  S
N418        C419   1.361       .  A
C419        N420   1.394       .  A
C419        C464   1.513   1_545  S
Zr421       O422   2.442       .  S
Zr421       O423   2.484       .  S
Zr421       O424   2.450       .  S
Zr421       O427   2.439       .  S
Zr421       O429   2.368       .  S
Zr421       O430   2.390       .  S
Zr421       O431   2.410       .  S
Zr421       O432   2.411       .  S
O422        H478   0.988       .  S
O422        H486   0.990       .  S
O423        C443   1.295       .  A
O424        C445   1.286       .  A
O425       Zr435   2.502       .  S
O425        C444   1.295       .  A
O426       Zr434   2.500       .  S
O426        C445   1.295       .  A
O427        C444   1.282       .  A
O428       Zr436   2.432       .  S
O428        C443   1.278       .  A
O429       Zr434   2.391       .  S
O429       Zr436   2.391       .  S
O430       Zr435   2.404       .  S
O430       Zr436   2.388       .  S
O430        H465   0.966       .  S
O431       Zr434   2.385       .  S
O431       Zr451   2.405       .  S
O431        H468   0.964       .  S
O432       Zr435   2.386       .  S
O432       Zr451   2.404       .  S
Zr433       O458   2.441       .  S
Zr433       O452   2.476       .  S
Zr433       O460   2.500       .  S
Zr433       O448   2.524       .  S
Zr433       O439   2.426       .  S
Zr433       O440   2.424       .  S
Zr433       O441   2.401       .  S
Zr433       O442   2.405       .  S
Zr434       O453   2.438       .  S
Zr434       O446   2.434       .  S
Zr434       O447   2.415       .  S
Zr434       O440   2.425       .  S
Zr434       O441   2.413       .  S
Zr435       O437   2.437       .  S
Zr435       O459   2.441       .  S
Zr435       O461   2.462       .  S
Zr435       O439   2.408       .  S
Zr435       O442   2.410       .  S
Zr436       O462   2.438       .  S
Zr436       O463   2.438       .  S
Zr436       O438   2.438       .  S
Zr436       O439   2.399       .  S
Zr436       O440   2.397       .  S
O437        H474   0.989       .  S
O438        H469   0.990       .  S
O438        H483   0.990       .  S
O440        H466   0.965       .  S
O441       Zr451   2.385       .  S
O442       Zr451   2.386       .  S
O442        H467   0.965       .  S
C443        C487   1.497       .  S
O446        H482   0.990       .  S
O447        C449   1.284       .  A
O448        C449   1.298       .  A
C449        C637   1.498       .  S
O450       Zr451   2.436       .  S
O450        H479   0.991       .  S
Zr451       O454   2.437       .  S
Zr451       O455   2.438       .  S
Zr451       O456   2.444       .  S
O452        C457   1.294       .  A
O453        H470   0.990       .  S
O453        H485   0.990       .  S
O454        H471   0.990       .  S
O455        H475   0.990       .  S
O455        H484   0.990       .  S
O456        C457   1.283       .  A
O458        H477   0.990       .  S
O458        H481   0.990       .  S
O459        H473   0.989       .  S
O459        H480   0.990       .  S
O460        C464   1.294       .  A
O461        C464   1.293       .  A
O462        H472   0.990       .  S
O463        H476   0.990       .  S
C487        N488   1.354       .  A
C487        N492   1.381   1_455  A
N488        C489   1.349   1_455  A
C489        N490   1.352       .  A
C489       C1006   1.474       .  S
N490        C491   1.355       .  A
C491        N492   1.381       .  A
C491        C607   1.497       .  S
C493        N494   1.353       .  A
C493        N498   1.384   1_455  A
N494        C495   1.346   1_455  A
C495        N496   1.351       .  A
C495        C993   1.486   1_655  S
N496        C497   1.358       .  A
C497        N498   1.382       .  A
C497        C527   1.505       .  S
Zr499       O500   2.440       .  S
Zr499       O501   2.510       .  S
Zr499       O502   2.503       .  S
Zr499       O505   2.518       .  S
Zr499       O507   2.393       .  S
Zr499       O508   2.394       .  S
Zr499       O509   2.427       .  S
Zr499       O510   2.422       .  S
O500        H556   0.989       .  S
O500        H564   0.990       .  S
O501        C521   1.302       .  A
O502        C523   1.297       .  A
O503       Zr513   2.427       .  S
O503        C522   1.286       .  A
O504       Zr512   2.436       .  S
O504        C523   1.284       .  A
O505        C522   1.296       .  A
O506       Zr514   2.427       .  S
O506        C521   1.277       .  A
O507       Zr512   2.409       .  S
O507       Zr514   2.395       .  S
O508       Zr513   2.391       .  S
O508       Zr514   2.383       .  S
O508        H543   0.965       .  S
O509       Zr512   2.407       .  S
O509       Zr529   2.395       .  S
O509        H546   0.964       .  S
O510       Zr513   2.393       .  S
O510       Zr529   2.416       .  S
Zr511       O536   2.440       .  S
Zr511       O530   2.519       .  S
Zr511       O538   2.495       .  S
Zr511       O526   2.504       .  S
Zr511       O517   2.425       .  S
Zr511       O518   2.423       .  S
Zr511       O519   2.389       .  S
Zr511       O520   2.379       .  S
Zr512       O531   2.436       .  S
Zr512       O524   2.438       .  S
Zr512       O525   2.455       .  S
Zr512       O518   2.396       .  S
Zr512       O519   2.397       .  S
Zr513       O515   2.435       .  S
Zr513       O537   2.446       .  S
Zr513       O539   2.434       .  S
Zr513       O517   2.392       .  S
Zr513       O520   2.403       .  S
Zr514       O540   2.436       .  S
Zr514       O541   2.437       .  S
Zr514       O516   2.442       .  S
Zr514       O517   2.409       .  S
Zr514       O518   2.378       .  S
O515        H552   0.990       .  S
O516        H547   0.990       .  S
O516        H561   0.990       .  S
O518        H544   0.962       .  S
O519       Zr529   2.381       .  S
O520       Zr529   2.383       .  S
O520        H545   0.966       .  S
C521        C565   1.499       .  S
O524        H560   0.990       .  S
O525        C527   1.293       .  A
O526        C527   1.294       .  A
O528       Zr529   2.435       .  S
O528        H557   0.990       .  S
Zr529       O532   2.437       .  S
Zr529       O533   2.443       .  S
Zr529       O534   2.450       .  S
O530        C535   1.304       .  A
O531        H548   0.990       .  S
O531        H563   0.990       .  S
O532        H549   0.990       .  S
O533        H553   0.990       .  S
O533        H562   0.989       .  S
O534        C535   1.283       .  A
O536        H555   0.991       .  S
O536        H559   0.989       .  S
O537        H551   0.989       .  S
O537        H558   0.990       .  S
O538        C542   1.299       .  A
O539        C542   1.281       .  A
O540        H550   0.990       .  S
O541        H554   0.990       .  S
C542        C643   1.490       .  S
C565        N566   1.345       .  A
C565        N570   1.385       .  A
N566        C567   1.348       .  A
C567        N568   1.348       .  A
C567        C974   1.475       .  S
N568        C569   1.358       .  A
C569        N570   1.386       .  A
C569        C595   1.496   1_545  S
Zr571       O572   2.440       .  S
Zr571       O573   2.466       .  S
Zr571       O574   2.445       .  S
Zr571       O577   2.458       .  S
Zr571       O579   2.376       .  S
Zr571       O580   2.376       .  S
Zr571       O581   2.412       .  S
Zr571       O582   2.401       .  S
O572        H628   0.989       .  S
O572        H636   0.990       .  S
O573        C593   1.293       .  A
O574        C595   1.287       .  A
O575       Zr585   2.453       .  S
O575        C594   1.286       .  A
O576       Zr584   2.495       .  S
O576        C595   1.294       .  A
O577        C594   1.290       .  A
O578       Zr586   2.441       .  S
O578        C593   1.281       .  A
O579       Zr584   2.397       .  S
O579       Zr586   2.386       .  S
O580       Zr585   2.387       .  S
O580       Zr586   2.378       .  S
O580        H615   0.966       .  S
O581       Zr584   2.402       .  S
O581       Zr601   2.397       .  S
O581        H618   0.966       .  S
O582       Zr585   2.389       .  S
O582       Zr601   2.407       .  S
Zr583       O608   2.440       .  S
Zr583       O602   2.492       .  S
Zr583       O610   2.519       .  S
Zr583       O598   2.537       .  S
Zr583       O589   2.426       .  S
Zr583       O590   2.425       .  S
Zr583       O591   2.398       .  S
Zr583       O592   2.394       .  S
Zr584       O603   2.437       .  S
Zr584       O596   2.431       .  S
Zr584       O597   2.448       .  S
Zr584       O590   2.421       .  S
Zr584       O591   2.421       .  S
Zr585       O587   2.438       .  S
Zr585       O609   2.438       .  S
Zr585       O611   2.425       .  S
Zr585       O589   2.403       .  S
Zr585       O592   2.398       .  S
Zr586       O612   2.437       .  S
Zr586       O613   2.435       .  S
Zr586       O588   2.440       .  S
Zr586       O589   2.408       .  S
Zr586       O590   2.400       .  S
O587        H624   0.990       .  S
O588        H619   0.990       .  S
O588        H633   0.990       .  S
O590        H616   0.964       .  S
O591       Zr601   2.386       .  S
O592       Zr601   2.382       .  S
O592        H617   0.964       .  S
C594        C649   1.483       .  S
O596        H632   0.989       .  S
O597        C599   1.287       .  A
O598        C599   1.305       .  A
O600       Zr601   2.436       .  S
O600        H629   0.990       .  S
Zr601       O604   2.435       .  S
Zr601       O605   2.440       .  S
Zr601       O606   2.437       .  S
O602        C607   1.298       .  A
O603        H620   0.990       .  S
O603        H635   0.990       .  S
O604        H621   0.990       .  S
O605        H625   0.990       .  S
O605        H634   0.990       .  S
O606        C607   1.281       .  A
O608        H627   0.990       .  S
O608        H631   0.990       .  S
O609        H623   0.990       .  S
O609        H630   0.990       .  S
O610        C614   1.300       .  A
O611        C614   1.284       .  A
O612        H622   0.990       .  S
O613        H626   0.990       .  S
C637        N638   1.359       .  A
C637        N642   1.387       .  A
N638        C639   1.346   1_556  A
C639        N640   1.336       .  A
C639        C958   1.464       .  S
N640        C641   1.344       .  A
C641        N642   1.386   1_554  A
C643        N644   1.383       .  A
C643        N648   1.344       .  A
N644        C645   1.383   1_556  A
C645        N646   1.357       .  A
N646        C647   1.354   1_554  A
C647        N648   1.341       .  A
C647        C942   1.479       .  S
C649        N650   1.373       .  A
C649        N654   1.346       .  A
N650        C651   1.379   1_556  A
C651        N652   1.363       .  A
N652        C653   1.359   1_554  A
C653        N654   1.351       .  A
C653        C926   1.492       .  S
C655        N656   1.388       .  A
C655        N660   1.353       .  A
N656        C657   1.389       .  A
C657        N658   1.348       .  A
N658        C659   1.344       .  A
C659        N660   1.351       .  A
C659        C910   1.484       .  S
C661        N662   1.398       .  A
C661        N666   1.351       .  A
N662        C663   1.393       .  A
C663        N664   1.365       .  A
N664        C665   1.348       .  A
C665        N666   1.346       .  A
C665        C897   1.494       .  S
C667        N668   1.345       .  A
C667        N672   1.390       .  A
N668        C669   1.340       .  A
C669        N670   1.352       .  A
C669        C878   1.477       .  S
N670        C671   1.361       .  A
C671        N672   1.398       .  A
N673        C678   1.345       .  A
N673        C677   1.342       .  A
N673        H705   1.034       .  S
N674        C681   1.351       .  A
N674        C682   1.346       .  A
N675        C680   1.345       .  A
N675        C679   1.339       .  A
N675        H706   1.037       .  S
N676        C683   1.348       .  A
N676        C684   1.343   1_565  A
C677        C685   1.386       .  A
C677        C693   1.408   1_455  A
C678        C694   1.415       .  A
C678        C686   1.379       .  A
C679        C687   1.387       .  A
C679        C696   1.402       .  A
C680        C695   1.399   1_655  A
C680        C688   1.386       .  A
C681        C693   1.401   1_545  A
C681        C689   1.385       .  A
C682        C696   1.411       .  A
C682        C690   1.387       .  A
C683        C691   1.388       .  A
C683        C694   1.411       .  A
C684        C692   1.384   1_545  A
C684        C695   1.396       .  A
C685        C686   1.389       .  A
C685        H697   1.079       .  S
C686        H698   1.082       .  S
C687        C688   1.382       .  A
C687        H699   1.082       .  S
C688        H700   1.082       .  S
C689        C690   1.372       .  A
C689        H701   1.083       .  S
C690        H702   1.083       .  S
C691        C692   1.374       .  A
C691        H703   1.082   1_455  S
C692        H704   1.082   1_455  S
C693       C1217   1.498       .  S
C694       C1249   1.516       .  S
C695        C881   1.485       .  S
C696       C1230   1.452       .  S
N707        C712   1.343       .  A
N707        C711   1.344       .  A
N707        H739   1.042       .  S
N708        C715   1.348       .  A
N708        C716   1.344       .  A
N709        C714   1.347       .  A
N709        C713   1.352       .  A
N709        H740   1.040       .  S
N710        C717   1.347   1_545  A
N710        C718   1.346       .  A
C711        C719   1.388       .  A
C711        C727   1.403       .  A
C712        C728   1.395   1_546  A
C712        C720   1.383   1_545  A
C713        C721   1.381       .  A
C713        C730   1.401       .  A
C714        C729   1.418       .  A
C714        C722   1.394       .  A
C715        C727   1.402       .  A
C715        C723   1.382       .  A
C716        C730   1.406   1_556  A
C716        C724   1.388       .  A
C717        C725   1.388       .  A
C717        C728   1.413       .  A
C718        C726   1.383       .  A
C718        C729   1.400       .  A
C719        C720   1.376   1_545  A
C719        H731   1.080       .  S
C720        H732   1.080       .  S
C721        C722   1.374       .  A
C721        H733   1.083       .  S
C722        H734   1.080       .  S
C723        C724   1.374       .  A
C723        H735   1.081       .  S
C724        H736   1.080       .  S
C725        C726   1.370   1_565  A
C725        H737   1.078       .  S
C726        H738   1.083   1_545  S
C727       C1121   1.476       .  S
C728       C1198   1.476       .  S
C729        C913   1.467       .  S
C730       C1153   1.475       .  S
N741        C746   1.344       .  A
N741        C745   1.343       .  A
N741        H773   1.039       .  S
N742        C749   1.351       .  A
N742        C750   1.340       .  A
N743        C748   1.363       .  A
N743        C747   1.361       .  A
N743        H774   1.036       .  S
N744        C751   1.352       .  A
N744        C752   1.339       .  A
C745        C753   1.390       .  A
C745        C761   1.401   1_554  A
C746        C762   1.395       .  A
C746        C754   1.384       .  A
C747        C755   1.389       .  A
C747        C764   1.433       .  A
C748        C763   1.426   1_556  A
C748        C756   1.385       .  A
C749        C761   1.409       .  A
C749        C757   1.383       .  A
C750        C764   1.411   1_655  A
C750        C758   1.389       .  A
C751        C759   1.371       .  A
C751        C762   1.388   1_455  A
C752        C760   1.398       .  A
C752        C763   1.424       .  A
C753        C754   1.370       .  A
C753        H765   1.083   1_554  S
C754        H766   1.083       .  S
C755        C756   1.374       .  A
C755        H767   1.083       .  S
C756        H768   1.082       .  S
C757        C758   1.374       .  A
C757        H769   1.079       .  S
C758        H770   1.081       .  S
C759        C760   1.370       .  A
C759        H771   1.082       .  S
C760        H772   1.073       .  S
C761       C1169   1.502       .  S
C762       C1185   1.472       .  S
C763        C894   1.489       .  S
C764       C1137   1.484       .  S
N775        C780   1.343       .  A
N775        C779   1.344       .  A
N775        H807   1.041       .  S
N776        C783   1.342       .  A
N776        C784   1.339       .  A
N777        C782   1.345   1_554  A
N777        C781   1.353       .  A
N777        H808   1.040       .  S
N778        C785   1.349       .  A
N778        C786   1.348       .  A
C779        C787   1.391       .  A
C779        C795   1.409   1_556  A
C780        C796   1.390       .  A
C780        C788   1.379       .  A
C781        C789   1.382       .  A
C781        C798   1.404       .  A
C782        C797   1.410       .  A
C782        C790   1.391       .  A
C783        C795   1.398       .  A
C783        C791   1.382       .  A
C784        C798   1.400       .  A
C784        C792   1.389       .  A
C785        C793   1.389       .  A
C785        C796   1.412       .  A
C786        C794   1.383       .  A
C786        C797   1.399       .  A
C787        C788   1.377       .  A
C787        H799   1.081       .  S
C788        H800   1.082       .  S
C789        C790   1.372   1_554  A
C789        H801   1.081       .  S
C790        H802   1.081       .  S
C791        C792   1.380       .  A
C791        H803   1.082       .  S
C792        H804   1.081       .  S
C793        C794   1.370       .  A
C793        H805   1.081       .  S
C794        H806   1.083       .  S
C795        C961   1.475       .  S
C796        C929   1.477       .  S
C797        C945   1.465       .  S
C798       C1038   1.472       .  S
N809        C814   1.345       .  A
N809        C813   1.341       .  A
N809        H841   1.043       .  S
N810        C817   1.351       .  A
N810        C818   1.346   1_655  A
N811        C816   1.351       .  A
N811        C815   1.351       .  A
N811        H842   1.042       .  S
N812        C819   1.342       .  A
N812        C820   1.341   1_655  A
C813        C821   1.386       .  A
C813        C829   1.398       .  A
C814        C830   1.402       .  A
C814        C822   1.386       .  A
C815        C823   1.382       .  A
C815        C832   1.402       .  A
C816        C831   1.418       .  A
C816        C824   1.391       .  A
C817        C829   1.401       .  A
C817        C825   1.380       .  A
C818        C832   1.411       .  A
C818        C826   1.391       .  A
C819        C827   1.390   1_655  A
C819        C830   1.409       .  A
C820        C828   1.383       .  A
C820        C831   1.394       .  A
C821        C822   1.385       .  A
C821        H833   1.081       .  S
C822        H834   1.082       .  S
C823        C824   1.376       .  A
C823        H835   1.082       .  S
C824        H836   1.082       .  S
C825        C826   1.372   1_655  A
C825        H837   1.081   1_655  S
C826        H838   1.079       .  S
C827        C828   1.373       .  A
C827        H839   1.081       .  S
C828        H840   1.082       .  S
C829       C1009   1.473       .  S
C830       C1057   1.472       .  S
C831       C1102   1.476       .  S
C832        C990   1.475       .  S
N843        C848   1.346       .  A
N843        C847   1.352       .  A
N843        H875   1.040       .  S
N844        C851   1.342       .  A
N844        C852   1.346       .  A
N845        C850   1.344       .  A
N845        C849   1.345       .  A
N845        H876   1.031       .  S
N846        C853   1.349       .  A
N846        C854   1.350       .  A
C847        C855   1.388       .  A
C847        C863   1.413       .  A
C848        C864   1.401       .  A
C848        C856   1.380       .  A
C849        C857   1.391       .  A
C849        C866   1.417       .  A
C850        C865   1.397       .  A
C850        C858   1.381       .  A
C851        C863   1.408       .  A
C851        C859   1.386       .  A
C852        C866   1.409       .  A
C852        C860   1.385       .  A
C853        C861   1.378       .  A
C853        C864   1.396       .  A
C854        C862   1.386       .  A
C854        C865   1.409       .  A
C855        C856   1.378       .  A
C855        H867   1.082       .  S
C856        H868   1.079       .  S
C857        C858   1.379       .  A
C857        H869   1.083       .  S
C858        H870   1.081       .  S
C859        C860   1.382       .  A
C859        H871   1.078   1_545  S
C860        H872   1.082   1_545  S
C861        C862   1.368       .  A
C861        H873   1.080       .  S
C862        H874   1.074       .  S
C863       C1073   1.479       .  S
C864        C977   1.480       .  S
C865       C1022   1.496       .  S
C866       C1089   1.483       .  S
C877        C878   1.413       .  A
C877        C882   1.399       .  A
C877        H884   1.084       .  S
C878        C879   1.410       .  A
C879        C880   1.399       .  A
C879        C886   1.507       .  S
C880        C881   1.411       .  A
C880        H885   1.082       .  S
C881        C882   1.402       .  A
C882        C883   1.506       .  S
C883        H887   1.110       .  S
C883        H888   1.110       .  S
C883        H889   1.110       .  S
C886        H890   1.110       .  S
C886        H891   1.110       .  S
C886        H892   1.111       .  S
C893        C894   1.403       .  A
C893        C898   1.405       .  A
C893        H900   1.085       .  S
C894        C895   1.407       .  A
C895        C896   1.400       .  A
C895        C902   1.504       .  S
C896        C897   1.410       .  A
C896        H901   1.084       .  S
C897        C898   1.422       .  A
C898        C899   1.502       .  S
C899        H903   1.111       .  S
C899        H904   1.103       .  S
C899        H905   1.110       .  S
C902        H906   1.109   1_554  S
C902        H907   1.111       .  S
C902        H908   1.110       .  S
C909        C910   1.409       .  A
C909        C914   1.400       .  A
C909        H916   1.084       .  S
C910        C911   1.423       .  A
C911        C912   1.395       .  A
C911        C918   1.503       .  S
C912        C913   1.391       .  A
C912        H917   1.085       .  S
C913        C914   1.404       .  A
C914        C915   1.505       .  S
C915        H919   1.111       .  S
C915        H920   1.110       .  S
C915        H921   1.110       .  S
C918        H922   1.109       .  S
C918        H923   1.110       .  S
C918        H924   1.107       .  S
C925        C926   1.416       .  A
C925        C930   1.401       .  A
C925        H932   1.084       .  S
C926        C927   1.419   1_556  A
C927        C928   1.398   1_554  A
C927        C934   1.506       .  S
C928        C929   1.404       .  A
C928        H933   1.085   1_556  S
C929        C930   1.401       .  A
C930        C931   1.505       .  S
C931        H935   1.111       .  S
C931        H936   1.110       .  S
C931        H937   1.110       .  S
C934        H938   1.102       .  S
C934        H939   1.110       .  S
C934        H940   1.111       .  S
C941        C942   1.406   1_554  A
C941        C946   1.397       .  A
C941        H948   1.084       .  S
C942        C943   1.426       .  A
C943        C944   1.394       .  A
C943        C950   1.507       .  S
C944        C945   1.392       .  A
C944        H949   1.085       .  S
C945        C946   1.407   1_556  A
C946        C947   1.506       .  S
C947        H951   1.111       .  S
C947        H952   1.110       .  S
C947        H953   1.110       .  S
C950        H954   1.105       .  S
C950        H955   1.109       .  S
C950        H956   1.110       .  S
C957        C958   1.398       .  A
C957        C962   1.394       .  A
C957        H964   1.084       .  S
C958        C959   1.416       .  A
C959        C960   1.403       .  A
C959        C966   1.506   1_554  S
C960        C961   1.400       .  A
C960        H965   1.084   1_554  S
C961        C962   1.415       .  A
C962        C963   1.508       .  S
C963        H967   1.111       .  S
C963        H968   1.109       .  S
C963        H969   1.110       .  S
C966        H970   1.109       .  S
C966        H971   1.110       .  S
C966        H972   1.111       .  S
C973        C974   1.406       .  A
C973        C978   1.400       .  A
C973        H980   1.084       .  S
C974        C975   1.412       .  A
C975        C976   1.397       .  A
C975        C982   1.504       .  S
C976        C977   1.406       .  A
C976        H981   1.082       .  S
C977        C978   1.405       .  A
C978        C979   1.499       .  S
C979        H983   1.110       .  S
C979        H984   1.108       .  S
C979        H985   1.109       .  S
C982        H986   1.106   1_545  S
C982        H987   1.111       .  S
C982        H988   1.110   1_545  S
C989        C990   1.402   1_655  A
C989        C994   1.398       .  A
C989        H996   1.084       .  S
C990        C991   1.407       .  A
C991        C992   1.403       .  A
C991        C998   1.505       .  S
C992        C993   1.408       .  A
C992        H997   1.083       .  S
C993        C994   1.410   1_455  A
C994        C995   1.502       .  S
C995        H999   1.107       .  S
C995       H1000   1.110       .  S
C995       H1001   1.110       .  S
C998       H1002   1.109       .  S
C998       H1003   1.110       .  S
C998       H1004   1.104       .  S
C1005      C1006   1.407       .  A
C1005      C1010   1.401       .  A
C1005      H1012   1.084       .  S
C1006      C1007   1.415   1_655  A
C1007      C1008   1.394       .  A
C1007      C1014   1.501       .  S
C1008      C1009   1.401   1_455  A
C1008      H1013   1.085       .  S
C1009      C1010   1.400       .  A
C1010      C1011   1.499       .  S
C1011      H1015   1.105       .  S
C1011      H1016   1.110       .  S
C1011      H1017   1.108       .  S
C1014      H1018   1.108       .  S
C1014      H1019   1.102       .  S
C1014      H1020   1.111       .  S
C1021      C1022   1.414       .  A
C1021      C1026   1.392       .  A
C1021      H1028   1.078       .  S
C1022      C1023   1.407       .  A
C1023      C1024   1.407       .  A
C1023      C1030   1.505       .  S
C1024      C1025   1.408       .  A
C1024      H1029   1.084       .  S
C1025      C1026   1.399       .  A
C1026      C1027   1.507       .  S
C1027      H1031   1.110       .  S
C1027      H1032   1.110       .  S
C1027      H1033   1.111       .  S
C1030      H1034   1.109       .  S
C1030      H1035   1.111       .  S
C1030      H1036   1.110       .  S
C1037      C1038   1.404   1_556  A
C1037      C1042   1.396       .  A
C1037      H1044   1.085       .  S
C1038      C1039   1.402       .  A
C1039      C1040   1.396       .  A
C1039      C1046   1.504       .  S
C1040      C1041   1.412       .  A
C1040      H1045   1.084       .  S
C1041      C1042   1.415   1_554  A
C1042      C1043   1.508       .  S
C1043      H1047   1.111       .  S
C1043      H1048   1.110       .  S
C1043      H1049   1.109       .  S
C1046      H1050   1.111       .  S
C1046      H1051   1.111       .  S
C1046      H1052   1.110       .  S
C1053      C1054   1.404       .  A
C1053      C1058   1.400       .  A
C1053      H1060   1.070       .  S
C1054      C1055   1.413       .  A
C1055      C1056   1.397       .  A
C1055      C1062   1.508       .  S
C1056      C1057   1.402       .  A
C1056      H1061   1.083       .  S
C1057      C1058   1.403       .  A
C1058      C1059   1.505       .  S
C1059      H1063   1.110       .  S
C1059      H1064   1.110       .  S
C1059      H1065   1.110       .  S
C1062      H1066   1.110       .  S
C1062      H1067   1.110       .  S
C1062      H1068   1.111       .  S
C1069      C1070   1.409       .  A
C1069      C1074   1.400       .  A
C1069      H1076   1.084       .  S
C1070      C1071   1.425       .  A
C1071      C1072   1.393       .  A
C1071      C1078   1.509       .  S
C1072      C1073   1.399       .  A
C1072      H1077   1.085       .  S
C1073      C1074   1.406       .  A
C1074      C1075   1.502   1_545  S
C1075      H1079   1.110       .  S
C1075      H1080   1.109       .  S
C1075      H1081   1.110       .  S
C1078      H1082   1.109       .  S
C1078      H1083   1.108       .  S
C1078      H1084   1.111       .  S
C1085      C1086   1.389       .  A
C1085      C1090   1.390       .  A
C1085      H1092   1.085       .  S
C1086      C1087   1.412       .  A
C1087      C1088   1.406       .  A
C1087      C1094   1.502       .  S
C1088      C1089   1.402       .  A
C1088      H1093   1.084       .  S
C1089      C1090   1.418       .  A
C1090      C1091   1.500       .  S
C1091      H1095   1.108       .  S
C1091      H1096   1.108       .  S
C1091      H1097   1.110       .  S
C1094      H1098   1.104       .  S
C1094      H1099   1.110   1_545  S
C1094      H1100   1.111       .  S
C1101      C1102   1.395       .  A
C1101      C1106   1.400       .  A
C1101      H1108   1.084       .  S
C1102      C1103   1.412   1_455  A
C1103      C1104   1.395       .  A
C1103      C1110   1.506       .  S
C1104      C1105   1.400       .  A
C1104      H1109   1.081       .  S
C1105      C1106   1.420   1_655  A
C1106      C1107   1.503       .  S
C1107      H1111   1.110       .  S
C1107      H1112   1.110       .  S
C1107      H1113   1.109       .  S
C1110      H1114   1.108       .  S
C1110      H1115   1.110       .  S
C1110      H1116   1.111       .  S
C1117      C1118   1.408   1_545  A
C1117      C1122   1.402       .  A
C1117      H1124   1.084       .  S
C1118      C1119   1.421   1_565  A
C1119      C1120   1.396       .  A
C1119      C1126   1.509   1_545  S
C1120      C1121   1.400       .  A
C1120      H1125   1.085       .  S
C1121      C1122   1.406       .  A
C1122      C1123   1.504       .  S
C1123      H1127   1.111       .  S
C1123      H1128   1.111       .  S
C1123      H1129   1.110       .  S
C1126      H1130   1.109       .  S
C1126      H1131   1.111       .  S
C1126      H1132   1.111       .  S
C1133      C1134   1.411       .  A
C1133      C1138   1.403       .  A
C1133      H1140   1.084       .  S
C1134      C1135   1.410       .  A
C1135      C1136   1.391       .  A
C1135      C1142   1.504       .  S
C1136      C1137   1.404       .  A
C1136      H1141   1.076       .  S
C1137      C1138   1.405       .  A
C1138      C1139   1.503       .  S
C1139      H1143   1.110       .  S
C1139      H1144   1.109       .  S
C1139      H1145   1.109   1_455  S
C1142      H1146   1.104       .  S
C1142      H1147   1.110       .  S
C1142      H1148   1.111       .  S
C1149      C1150   1.405       .  A
C1149      C1154   1.394       .  A
C1149      H1156   1.083       .  S
C1150      C1151   1.420       .  A
C1151      C1152   1.403       .  A
C1151      C1158   1.502       .  S
C1152      C1153   1.398   1_556  A
C1152      H1157   1.084   1_556  S
C1153      C1154   1.407   1_554  A
C1154      C1155   1.506   1_556  S
C1155      H1159   1.111   1_554  S
C1155      H1160   1.110       .  S
C1155      H1161   1.109       .  S
C1158      H1162   1.111       .  S
C1158      H1163   1.107       .  S
C1158      H1164   1.110       .  S
C1165      C1166   1.400       .  A
C1165      C1170   1.404       .  A
C1165      H1172   1.083       .  S
C1166      C1167   1.407       .  A
C1167      C1168   1.405       .  A
C1167      C1174   1.500       .  S
C1168      C1169   1.393       .  A
C1168      H1173   1.074       .  S
C1169      C1170   1.413       .  A
C1170      C1171   1.499       .  S
C1171      H1175   1.110       .  S
C1171      H1176   1.094       .  S
C1171      H1177   1.108       .  S
C1174      H1178   1.108       .  S
C1174      H1179   1.109       .  S
C1174      H1180   1.108       .  S
C1181      C1182   1.397       .  A
C1181      C1186   1.401       .  A
C1181      H1188   1.084       .  S
C1182      C1183   1.409       .  A
C1183      C1184   1.393       .  A
C1183      C1190   1.505       .  S
C1184      C1185   1.396       .  A
C1184      H1189   1.083       .  S
C1185      C1186   1.416       .  A
C1186      C1187   1.505       .  S
C1187      H1191   1.110       .  S
C1187      H1192   1.110       .  S
C1187      H1193   1.109       .  S
C1190      H1194   1.110       .  S
C1190      H1195   1.110       .  S
C1190      H1196   1.108       .  S
C1197      C1198   1.398       .  A
C1197      C1202   1.395       .  A
C1197      H1204   1.083       .  S
C1198      C1199   1.414       .  A
C1199      C1200   1.397       .  A
C1199      C1206   1.504   1_554  S
C1200      C1201   1.401       .  A
C1200      H1205   1.083       .  S
C1201      C1202   1.411       .  A
C1202      C1203   1.499       .  S
C1203      H1207   1.109       .  S
C1203      H1208   1.109       .  S
C1203      H1209   1.110       .  S
C1206      H1210   1.111       .  S
C1206      H1211   1.111       .  S
C1206      H1212   1.110   1_556  S
C1213      C1214   1.416       .  A
C1213      C1218   1.404       .  A
C1213      H1220   1.080       .  S
C1214      C1215   1.408       .  A
C1215      C1216   1.391       .  A
C1215      C1222   1.510       .  S
C1216      C1217   1.414       .  A
C1216      H1221   1.074       .  S
C1217      C1218   1.406       .  A
C1218      C1219   1.505       .  S
C1219      H1223   1.111       .  S
C1219      H1224   1.110       .  S
C1219      H1225   1.109       .  S
C1222      H1226   1.111       .  S
C1222      H1227   1.109       .  S
C1222      H1228   1.111       .  S
C1229      C1230   1.393       .  A
C1229      C1234   1.387       .  A
C1229      H1236   1.085       .  S
C1230      C1231   1.411       .  A
C1231      C1232   1.393       .  A
C1231      C1238   1.508       .  S
C1232      C1233   1.397       .  A
C1232      H1237   1.085       .  S
C1233      C1234   1.415       .  A
C1234      C1235   1.508       .  S
C1235      H1239   1.111       .  S
C1235      H1240   1.110       .  S
C1235      H1241   1.104       .  S
C1238      H1242   1.108       .  S
C1238      H1243   1.111       .  S
C1238      H1244   1.111       .  S
C1245      C1246   1.398       .  A
C1245      C1250   1.408       .  A
C1245      H1252   1.085       .  S
C1246      C1247   1.397       .  A
C1247      C1248   1.391       .  A
C1247      C1254   1.478       .  S
C1248      C1249   1.409       .  A
C1248      H1253   1.081       .  S
C1249      C1250   1.442       .  A
C1250      C1251   1.494       .  S
C1251      H1255   1.110       .  S
C1251      H1256   1.094   1_455  S
C1251      H1257   1.089       .  S
C1254      H1258   1.107       .  S
C1254      H1259   1.101       .  S
C1254      H1260   1.107       .  S
