geometry optimzed in LAMMPS
_audit_creation_date              2020-12-01 
_audit_creation_method            'lammps2cif' 
_symmetry_space_group_name_H-M    'P1' 
_symmetry_Int_Tables_number       1 
_symmetry_cell_setting            triclinic 
loop_ 
_symmetry_equiv_pos_as_xyz 
  x,y,z 
_cell_length_a                    96.96716977 
_cell_length_b                    95.67704508988324 
_cell_length_c                    54.734412195630426 
_cell_angle_alpha                 90.3057851887959 
_cell_angle_beta                  90.12921190132984 
_cell_angle_gamma                 87.65375009633206 
loop_ 
_atom_site_label 
_atom_site_type_symbol 
_atom_site_fract_x 
_atom_site_fract_y 
_atom_site_fract_z 
_atom_site_charge 
N1          N  0.66924355  0.19265259  0.15480008    -0.27000
N2          N  0.66988290  0.17881972  0.15410480    -0.34800
C3          C  0.65916449  0.17394556  0.16641176     0.01400
C4          C  0.65123626  0.18519068  0.17497389     0.07400
C5          C  0.65785467  0.19693849  0.16727851    -0.05700
H6          H  0.65759698  0.16299101  0.16976781     0.08100
H7          H  0.65522089  0.20770392  0.17207183     0.09300
Cu8        Cu  0.68556190  0.16666773  0.13839120     0.44200
Cu9        Cu  0.68520781  0.20465801  0.14245621     0.42000
Cu10       Cu  0.71460449  0.18364407  0.11698567     0.43900
N11         N  0.70151724  0.15597086  0.12063282    -0.34400
N12         N  0.71236041  0.16235053  0.11235582    -0.28600
C13         C  0.72018260  0.15320095  0.09913801    -0.04700
C14         C  0.71392366  0.14043365  0.09913741     0.07500
C15         C  0.70213645  0.14255873  0.11306150     0.01300
H16         H  0.72929052  0.15587154  0.08907978     0.09000
H17         H  0.69408437  0.13524369  0.11591208     0.08000
N18         N  0.71433209  0.20507678  0.12274968    -0.35800
N19         N  0.70386935  0.21273719  0.13185902    -0.28000
C20         C  0.70758286  0.22612029  0.13361305    -0.03200
C21         C  0.72096985  0.22686242  0.12512511     0.05400
C22         C  0.72488677  0.21335299  0.11837953     0.03500
H23         H  0.70107306  0.23461659  0.14081225     0.08600
H24         H  0.73476144  0.20968993  0.11113733     0.07400
N25         N  0.66899157  0.19074013  0.37350374    -0.27000
N26         N  0.66985172  0.17690550  0.37293650    -0.34800
C27         C  0.65928091  0.17217423  0.35982718     0.01400
C28         C  0.65123263  0.18351811  0.35207600     0.07400
C29         C  0.65762417  0.19515268  0.36109463    -0.05700
H30         H  0.65785686  0.16128013  0.35549703     0.08100
H31         H  0.65483947  0.20599215  0.35730060     0.09300
Cu32       Cu  0.68558524  0.16471541  0.38848414     0.44200
Cu33       Cu  0.68463397  0.20283207  0.38725843     0.42000
Cu34       Cu  0.71405552  0.18249928  0.41248276     0.43900
N35         N  0.70144742  0.15450166  0.40735957    -0.34400
N36         N  0.71196384  0.16114852  0.41652112    -0.28600
C37         C  0.71968517  0.15219643  0.43019826    -0.04700
C38         C  0.71370627  0.13928268  0.42964490     0.07500
C39         C  0.70219005  0.14111848  0.41487202     0.01300
H40         H  0.72851279  0.15510662  0.44092452     0.09000
H41         H  0.69438180  0.13360625  0.41131768     0.08000
N42         N  0.71372520  0.20393007  0.40691305    -0.35800
N43         N  0.70314031  0.21138679  0.39783494    -0.28000
C44         C  0.70671290  0.22478873  0.39578429    -0.03200
C45         C  0.72014727  0.22577239  0.40405883     0.05400
C46         C  0.72423446  0.21236541  0.41099768     0.03500
H47         H  0.70009656  0.23312337  0.38842359     0.08600
H48         H  0.73421633  0.20887250  0.41802571     0.07400
N49         N  0.62205712  0.19004801  0.21609989    -0.27000
N50         N  0.62911781  0.17968707  0.22688664    -0.34800
C51         C  0.64008420  0.17593954  0.21305113     0.01400
C52         C  0.64007923  0.18453284  0.19287836     0.07400
C53         C  0.62855900  0.19340492  0.19535946    -0.05700
H54         H  0.64816104  0.16843090  0.21842437     0.08100
H55         H  0.62538557  0.20193976  0.18345448     0.09300
Cu56       Cu  0.62641799  0.17428262  0.26301742     0.44200
Cu57       Cu  0.60454783  0.19973167  0.23124957     0.42000
Cu58       Cu  0.60471524  0.19970780  0.29624856     0.43900
N59         N  0.62905220  0.17912172  0.29953535    -0.34400
N60         N  0.62214232  0.18944486  0.31087050    -0.28600
C61         C  0.62867443  0.19234307  0.33192512    -0.04700
C62         C  0.64004055  0.18322286  0.33403581     0.07500
C63         C  0.63992700  0.17495425  0.31330375     0.01300
H64         H  0.62564116  0.20075492  0.34432050     0.09000
H65         H  0.64789287  0.16740090  0.30754652     0.08000
N66         N  0.58780100  0.20705770  0.27592575    -0.35800
N67         N  0.58775469  0.20694573  0.25178738    -0.28000
C68         C  0.57532582  0.21171386  0.24374054    -0.03200
C69         C  0.56713357  0.21505112  0.26379583     0.05400
C70         C  0.57538432  0.21194783  0.28392290     0.03500
H71         H  0.57243559  0.21251011  0.22468426     0.08600
H72         H  0.57252573  0.21292116  0.30296417     0.07400
N73         N  0.71553019  0.10764195  0.46663657    -0.27000
N74         N  0.72402146  0.11573888  0.47851019    -0.34800
C75         C  0.72539965  0.12765220  0.46611541     0.01400
C76         C  0.71726585  0.12723574  0.44544604     0.07400
C77         C  0.71116407  0.11434929  0.44622362    -0.05700
H78         H  0.73071121  0.13657226  0.47307809     0.08100
H79         H  0.70342616  0.11057518  0.43383623     0.09300
Cu80       Cu  0.72936538  0.11306965  0.01457056     0.44200
Cu81       Cu  0.70928693  0.08886671  0.48177646     0.42000
Cu82       Cu  0.71035789  0.08902609  0.04900408     0.43900
N83         N  0.72419845  0.11644165  0.05056121    -0.34400
N84         N  0.71612835  0.10828412  0.06302318    -0.28600
C85         C  0.71179040  0.11521084  0.08331299    -0.04700
C86         C  0.71750912  0.12828667  0.08344427     0.07500
C87         C  0.72534314  0.12862266  0.06248152     0.01300
H88         H  0.70438066  0.11138223  0.09614730     0.09000
H89         H  0.73032215  0.13758654  0.05509380     0.08000
N90         N  0.70739316  0.07118344  0.02770308    -0.35800
N91         N  0.70678124  0.07113742  0.50342763    -0.28000
C92         C  0.70572510  0.05785542  0.49551921    -0.03200
C93         C  0.70570827  0.04909184  0.01569018     0.05400
C94         C  0.70668413  0.05793073  0.03570963     0.03500
H95         H  0.70563500  0.05476488  0.47648301     0.08600
H96         H  0.70732909  0.05492515  0.05471276     0.07400
N97         N  0.68628777  0.84622775  0.40894340    -0.27000
N98         N  0.67266404  0.84625535  0.41044011    -0.34800
C99         C  0.66820620  0.85762284  0.42315604     0.01400
C100        C  0.67951040  0.86522431  0.42953843     0.07400
C101        C  0.69080180  0.85772318  0.42021084    -0.05700
H102        H  0.65755421  0.85995251  0.42806998     0.08100
H103        H  0.70155764  0.85989508  0.42298318     0.09300
Cu104      Cu  0.66057487  0.83080082  0.39566251     0.44200
Cu105      Cu  0.69840269  0.82967191  0.39505911     0.42000
Cu106      Cu  0.67982035  0.80083912  0.37148084     0.43900
N107        N  0.65149005  0.81495885  0.37585402    -0.34400
N108        N  0.65871728  0.80405290  0.36706675    -0.28600
C109        C  0.65050911  0.79641670  0.35297623    -0.04700
C110        C  0.63744369  0.80275761  0.35278898     0.07500
C111        C  0.63839935  0.81449538  0.36756899     0.01300
H112        H  0.65401550  0.78731102  0.34257222     0.09000
H113        H  0.63045006  0.82256055  0.37075705     0.08000
N114        N  0.70112284  0.80053302  0.37449929    -0.35800
N115        N  0.70803285  0.81116769  0.38291322    -0.28000
C116        C  0.72161757  0.80763507  0.38272700    -0.03200
C117        C  0.72329872  0.79411994  0.37371954     0.05400
C118        C  0.71008732  0.78996795  0.36866893     0.03500
H119        H  0.72962283  0.81432805  0.38906582     0.08600
H120        H  0.70713760  0.77994863  0.36157183     0.07400
N121        N  0.68728799  0.84642399  0.12673824    -0.27000
N122        N  0.67365063  0.84667471  0.12531500    -0.34800
C123        C  0.66930073  0.85819832  0.11311906     0.01400
C124        C  0.68068890  0.86566600  0.10692898     0.07400
C125        C  0.69191988  0.85792587  0.11588756    -0.05700
H126        H  0.65866341  0.86066958  0.10823128     0.08100
H127        H  0.70269789  0.85989658  0.11297186     0.09300
Cu128      Cu  0.66138015  0.83123355  0.13915615     0.44200
Cu129      Cu  0.69924400  0.82947659  0.13955892     0.42000
Cu130      Cu  0.68045051  0.80091469  0.16226219     0.43900
N131        N  0.65232903  0.81546873  0.15876436    -0.34400
N132        N  0.65950770  0.80452654  0.16738602    -0.28600
C133        C  0.65133578  0.79703679  0.18157991    -0.04700
C134        C  0.63834089  0.80350624  0.18193449     0.07500
C135        C  0.63929435  0.81515929  0.16720024     0.01300
H136        H  0.65481251  0.78791422  0.19182679     0.09000
H137        H  0.63138520  0.82326597  0.16411252     0.08000
N138        N  0.70163019  0.79998138  0.15803248    -0.35800
N139        N  0.70868071  0.81052695  0.14992597    -0.28000
C140        C  0.72217199  0.80659463  0.14921505    -0.03200
C141        C  0.72362668  0.79292402  0.15735232     0.05400
C142        C  0.71038435  0.78908580  0.16277195     0.03500
H143        H  0.73026272  0.81315771  0.14298711     0.08600
H144        H  0.70728030  0.77907288  0.16945590     0.07400
N145        N  0.60739707  0.80134215  0.21905707    -0.27000
N146        N  0.61603670  0.79265385  0.23073048    -0.34800
C147        C  0.62793534  0.79142213  0.21828327     0.01400
C148        C  0.62686354  0.79988535  0.19794315     0.07400
C149        C  0.61367440  0.80599232  0.19889988    -0.05700
H150        H  0.63715967  0.78594009  0.22495157     0.08100
H151        H  0.60930292  0.81391292  0.18680189     0.09300
Cu152      Cu  0.61357165  0.78684617  0.26667225     0.44200
Cu153      Cu  0.58841264  0.80796489  0.23349807     0.42000
Cu154      Cu  0.58775640  0.80682785  0.29973849     0.43900
N155        N  0.61545907  0.79186922  0.30319923    -0.34400
N156        N  0.60660794  0.80031092  0.31499618    -0.28600
C157        C  0.61269711  0.80491114  0.33554316    -0.04700
C158        C  0.62598311  0.79899707  0.33661434     0.07500
C159        C  0.62727638  0.79070161  0.31594899     0.01300
H160        H  0.60817008  0.81273883  0.34776751     0.09000
H161        H  0.63663991  0.78550986  0.30919724     0.08000
N162        N  0.57054752  0.81195648  0.27827606    -0.35800
N163        N  0.57079311  0.81249043  0.25413333    -0.28000
C164        C  0.55800620  0.81589972  0.24589425    -0.03200
C165        C  0.54928713  0.81756154  0.26580123     0.05400
C166        C  0.55759879  0.81497655  0.28600783     0.03500
H167        H  0.55525336  0.81691985  0.22680376     0.08600
H168        H  0.55448023  0.81515737  0.30496856     0.07400
N169        N  0.68797237  0.89456593  0.06639772    -0.27000
N170        N  0.67768696  0.88869246  0.05487495    -0.34800
C171        C  0.67305303  0.87826061  0.06848176     0.01400
C172        C  0.68093117  0.87725104  0.08943018     0.07400
C173        C  0.69038023  0.88770181  0.08756406    -0.05700
H174        H  0.66542820  0.87104798  0.06243162     0.08100
H175        H  0.69865438  0.88982471  0.10017435     0.09300
Cu176      Cu  0.67320933  0.89176313  0.01840307     0.44200
Cu177      Cu  0.69816511  0.91123065  0.05114259     0.42000
Cu178      Cu  0.69711935  0.91129812  0.48449791     0.43900
N179        N  0.67685258  0.88853759  0.48168504    -0.34400
N180        N  0.68681051  0.89451899  0.46964732    -0.28600
C181        C  0.68897087  0.88757013  0.44840368    -0.04700
C182        C  0.67970332  0.87692881  0.44700466     0.07500
C183        C  0.67217345  0.87791369  0.46832901     0.01300
H184        H  0.69700986  0.88973849  0.43545081     0.09000
H185        H  0.66482800  0.87056535  0.47477433     0.08000
N186        N  0.70281906  0.92834441  0.00564464    -0.35800
N187        N  0.70328275  0.92831699  0.02981763    -0.28000
C188        C  0.70597972  0.94128247  0.03776366    -0.03200
C189        C  0.70722834  0.94992119  0.01769319     0.05400
C190        C  0.70530763  0.94131762  0.49757546     0.03500
H191        H  0.70629701  0.94434609  0.05680178     0.08600
H192        H  0.70489640  0.94439324  0.47859286     0.07400
N193        N  0.34939859  0.86452825  0.37318636    -0.27000
N194        N  0.35004315  0.87832497  0.37373603    -0.34800
C195        C  0.36141934  0.88202152  0.36184461     0.01400
C196        C  0.36841050  0.87003041  0.35378853     0.07400
C197        C  0.36054477  0.85910322  0.36126956    -0.05700
H198        H  0.36417251  0.89270188  0.35864353     0.08100
H199        H  0.36227410  0.84813006  0.35689399     0.09300
Cu200      Cu  0.33541623  0.89202370  0.38937042     0.44200
Cu201      Cu  0.33244512  0.85382437  0.38527988     0.42000
Cu202      Cu  0.30498995  0.87623832  0.41012749     0.43900
N203        N  0.31984845  0.90317150  0.40782206    -0.34400
N204        N  0.30871318  0.89712541  0.41573563    -0.28600
C205        C  0.30117484  0.90632571  0.42926397    -0.04700
C206        C  0.30783821  0.91882399  0.42988364     0.07500
C207        C  0.31964343  0.91649327  0.41599432     0.01300
H208        H  0.29188182  0.90385411  0.43895747     0.09000
H209        H  0.32791024  0.92359930  0.41344216     0.08000
N210        N  0.30315271  0.85508375  0.40380655    -0.35800
N211        N  0.31319271  0.84676281  0.39501652    -0.28000
C212        C  0.30851226  0.83377392  0.39258903    -0.03200
C213        C  0.29488332  0.83398604  0.40018421     0.05400
C214        C  0.29184636  0.84766277  0.40719328     0.03500
H215        H  0.31451607  0.82492579  0.38534790     0.08600
H216        H  0.28209517  0.85198586  0.41395923     0.07400
N217        N  0.35035370  0.86615160  0.15968633    -0.27000
N218        N  0.35100356  0.87994557  0.15934944    -0.34800
C219        C  0.36221538  0.88363927  0.17198374     0.01400
C220        C  0.36907390  0.87161359  0.18022643     0.07400
C221        C  0.36130032  0.86072452  0.17209204    -0.05700
H222        H  0.36496578  0.89431426  0.17547073     0.08100
H223        H  0.36294020  0.84975016  0.17633952     0.09300
Cu224      Cu  0.33643072  0.89337303  0.14274483     0.44200
Cu225      Cu  0.33357874  0.85531527  0.14701840     0.42000
Cu226      Cu  0.30584655  0.87683552  0.12197841     0.43900
N227        N  0.32071575  0.90389358  0.12348270    -0.34400
N228        N  0.30962481  0.89764142  0.11562756    -0.28600
C229        C  0.30207291  0.90657207  0.10166628    -0.04700
C230        C  0.30866998  0.91909761  0.10071401     0.07500
C231        C  0.32044069  0.91706885  0.11484920     0.01300
H232        H  0.29279243  0.90390231  0.09199431     0.09000
H233        H  0.32862880  0.92429241  0.11735763     0.08000
N234        N  0.30428260  0.85569297  0.12874265    -0.35800
N235        N  0.31449957  0.84766345  0.13760336    -0.28000
C236        C  0.31017397  0.83453576  0.13986379    -0.03200
C237        C  0.29658778  0.83432961  0.13198969     0.05400
C238        C  0.29320742  0.84793200  0.12509722     0.03500
H239        H  0.31643772  0.82582848  0.14684957     0.08600
H240        H  0.28342080  0.85195212  0.11799254     0.07400
N241        N  0.39809520  0.86179234  0.31502640    -0.27000
N242        N  0.39245072  0.87280318  0.30376630    -0.34800
C243        C  0.38157841  0.87779076  0.31672588     0.01400
C244        C  0.38013333  0.86938296  0.33687567     0.07400
C245        C  0.39073328  0.85928843  0.33527533    -0.05700
H246        H  0.37445634  0.88606820  0.31067324     0.08100
H247        H  0.39265359  0.85052211  0.34739070     0.09300
Cu248      Cu  0.39645154  0.87766471  0.26783218     0.44200
Cu249      Cu  0.41485253  0.85040154  0.30059943     0.42000
Cu250      Cu  0.41477257  0.85066561  0.23447456     0.43900
N251        N  0.39266650  0.87346203  0.23144830    -0.34400
N252        N  0.39821699  0.86245393  0.21989044    -0.28600
C253        C  0.39102948  0.86035507  0.19917865    -0.04700
C254        C  0.38067699  0.87072914  0.19754212     0.07500
C255        C  0.38206013  0.87886271  0.21823141     0.01300
H256        H  0.39287908  0.85166548  0.18672318     0.09000
H257        H  0.37502785  0.88720842  0.22442074     0.08000
N258        N  0.43165102  0.84370610  0.25542105    -0.35800
N259        N  0.43163569  0.84361177  0.27958790    -0.28000
C260        C  0.44439323  0.83995792  0.28763371    -0.03200
C261        C  0.45288974  0.83768944  0.26759700     0.05400
C262        C  0.44445101  0.84011932  0.24747648     0.03500
H263        H  0.44737686  0.83959968  0.30668313     0.08600
H264        H  0.44748750  0.83987086  0.22847288     0.07400
N265        N  0.30651152  0.95047991  0.06323106    -0.27000
N266        N  0.29807814  0.94228975  0.05141250    -0.34800
C267        C  0.29687722  0.93038153  0.06393030     0.01400
C268        C  0.30510021  0.93094393  0.08451256     0.07400
C269        C  0.31105193  0.94386455  0.08358543    -0.05700
H270        H  0.29157303  0.92140261  0.05718907     0.08100
H271        H  0.31873025  0.94779187  0.09593383     0.09300
Cu272      Cu  0.29253825  0.94512101  0.01534014     0.44200
Cu273      Cu  0.31248660  0.96935398  0.04865478     0.42000
Cu274      Cu  0.31203356  0.96933469  0.48194961     0.43900
N275        N  0.29759019  0.94234336  0.47915585    -0.34400
N276        N  0.30588392  0.95049798  0.46716622    -0.28600
C277        C  0.31025460  0.94378978  0.44669324    -0.04700
C278        C  0.30433337  0.93084211  0.44590884     0.07500
C279        C  0.29630596  0.93037486  0.46665683     0.01300
H280        H  0.31784719  0.94764578  0.43423352     0.09000
H281        H  0.29115534  0.92139499  0.47357650     0.08000
N282        N  0.31490315  0.98703475  0.00327210    -0.35800
N283        N  0.31509168  0.98707919  0.02745557    -0.28000
C284        C  0.31616614  0.00033115  0.03544660    -0.03200
C285        C  0.31663749  0.00904522  0.01536329     0.05400
C286        C  0.31581585  0.00025132  0.49539375     0.03500
H287        H  0.31614937  0.00341225  0.05448899     0.08600
H288        H  0.31553756  0.00324616  0.47636546     0.07400
N289        N  0.33363718  0.21428673  0.12262336    -0.27000
N290        N  0.34728429  0.21375732  0.12247698    -0.34800
C291        C  0.35179003  0.20204501  0.11082971     0.01400
C292        C  0.34046992  0.19471683  0.10360607     0.07400
C293        C  0.32910896  0.20277303  0.11136267    -0.05700
H294        H  0.36251086  0.19938360  0.10689451     0.08100
H295        H  0.31839643  0.20100748  0.10727280     0.09300
Cu296      Cu  0.35923246  0.22935857  0.13674536     0.44200
Cu297      Cu  0.32207219  0.23189264  0.13416160     0.42000
Cu298      Cu  0.34137510  0.26080874  0.15842214     0.43900
N299        N  0.36875780  0.24485642  0.15641034    -0.34400
N300        N  0.36211226  0.25620204  0.16488387    -0.28600
C301        C  0.37059731  0.26315581  0.17962236    -0.04700
C302        C  0.38320102  0.25585180  0.18041679     0.07500
C303        C  0.38169539  0.24434287  0.16539472     0.01300
H304        H  0.36756894  0.27243686  0.18998611     0.09000
H305        H  0.38909425  0.23571359  0.16260995     0.08000
N306        N  0.32055496  0.26230179  0.14986473    -0.35800
N307        N  0.31347706  0.25176060  0.14146230    -0.28000
C308        C  0.30043598  0.25637018  0.13690076    -0.03200
C309        C  0.29928667  0.27047873  0.14259728     0.05400
C310        C  0.31222580  0.27387928  0.15082006     0.03500
H311        H  0.29251358  0.24998711  0.12931460     0.08600
H312        H  0.31544848  0.28406006  0.15667425     0.07400
N313        N  0.33141654  0.21161956  0.40676008    -0.27000
N314        N  0.34504545  0.21082916  0.40543979    -0.34800
C315        C  0.34977157  0.19906978  0.41643963     0.01400
C316        C  0.33863323  0.19195385  0.42478536     0.07400
C317        C  0.32712187  0.20019091  0.41837523    -0.05700
H318        H  0.36057685  0.19629580  0.41935640     0.08100
H319        H  0.31655774  0.19863192  0.42370014     0.09300
Cu320      Cu  0.35703009  0.22609875  0.39069369     0.44200
Cu321      Cu  0.31976202  0.22942163  0.39648650     0.42000
Cu322      Cu  0.33978854  0.25763629  0.37079782     0.43900
N323        N  0.36708242  0.24159976  0.37239690    -0.34400
N324        N  0.36059789  0.25313422  0.36454952    -0.28600
C325        C  0.36935345  0.26040303  0.35105387    -0.04700
C326        C  0.38198377  0.25310853  0.35043446     0.07500
C327        C  0.38018917  0.24125320  0.36425842     0.01300
H328        H  0.36653798  0.26997130  0.34149435     0.09000
H329        H  0.38756095  0.23259562  0.36690013     0.08000
N330        N  0.31892053  0.25952065  0.37907517    -0.35800
N331        N  0.31163068  0.24931515  0.38795420    -0.28000
C332        C  0.29848433  0.25407139  0.39088055    -0.03200
C333        C  0.29746827  0.26790770  0.38355835     0.05400
C334        C  0.31062046  0.27101744  0.37623861     0.03500
H335        H  0.29029173  0.24790140  0.39791698     0.08600
H336        H  0.31392908  0.28085653  0.36912193     0.07400
N337        N  0.33337730  0.16323959  0.46661932    -0.27000
N338        N  0.34322714  0.16995978  0.47785467    -0.34800
C339        C  0.34718636  0.18045342  0.46366522     0.01400
C340        C  0.33927886  0.18057491  0.44268454     0.07400
C341        C  0.33056790  0.16954954  0.44509868    -0.05700
H342        H  0.35424045  0.18832651  0.46935171     0.08100
H343        H  0.32241461  0.16672582  0.43271663     0.09300
Cu344      Cu  0.34762058  0.16787834  0.01467975     0.44200
Cu345      Cu  0.32384068  0.14658726  0.48285512     0.42000
Cu346      Cu  0.32493475  0.14736409  0.04955102     0.43900
N347        N  0.34373832  0.17147174  0.05133119    -0.34400
N348        N  0.33435968  0.16487707  0.06382825    -0.28600
C349        C  0.33202901  0.17176874  0.08509943    -0.04700
C350        C  0.34056119  0.18304639  0.08600658     0.07500
C351        C  0.34783662  0.18248478  0.06437295     0.01300
H352        H  0.32439997  0.16906213  0.09847509     0.09000
H353        H  0.35467705  0.19024272  0.05764263     0.08000
N354        N  0.31965234  0.12994579  0.02887366    -0.35800
N355        N  0.31923651  0.12973270  0.50482259    -0.28000
C356        C  0.31722187  0.11657746  0.49717250    -0.03200
C357        C  0.31636298  0.10805459  0.01730576     0.05400
C358        C  0.31791237  0.11690554  0.03716618     0.03500
H359        H  0.31713701  0.11335411  0.47820393     0.08600
H360        H  0.31853694  0.11395881  0.05620038     0.07400
N361        N  0.41341671  0.25372725  0.31405802    -0.27000
N362        N  0.40540427  0.26314129  0.30270778    -0.34800
C363        C  0.39349257  0.26498302  0.31496779     0.01400
C364        C  0.39385670  0.25619242  0.33488925     0.07400
C365        C  0.40667543  0.24921666  0.33385636    -0.05700
H366        H  0.38466521  0.27114925  0.30837588     0.08100
H367        H  0.41044649  0.24085964  0.34565193     0.09300
Cu368      Cu  0.40838082  0.26923945  0.26712001     0.44200
Cu369      Cu  0.43219500  0.24627875  0.29947906     0.42000
Cu370      Cu  0.43230608  0.24697244  0.23341547     0.43900
N371        N  0.40577636  0.26426160  0.23076567    -0.34400
N372        N  0.41387024  0.25510830  0.21886949    -0.28600
C373        C  0.40744526  0.25128020  0.19819823    -0.04700
C374        C  0.39473939  0.25842356  0.19712043     0.07500
C375        C  0.39408911  0.26660992  0.21797012     0.01300
H376        H  0.41134464  0.24324674  0.18574249     0.09000
H377        H  0.38520547  0.27267425  0.22464882     0.08000
N378        N  0.44971447  0.24180930  0.25425057    -0.35800
N379        N  0.44972194  0.24164865  0.27841805    -0.28000
C380        C  0.46271192  0.23895058  0.28634113    -0.03200
C381        C  0.47129056  0.23735024  0.26621396     0.05400
C382        C  0.46267465  0.23918578  0.24618306     0.03500
H383        H  0.46572362  0.23853817  0.30537225     0.08600
H384        H  0.46563761  0.23906298  0.22714065     0.07400
N385        N  0.18118426  0.38233377  0.16011292    -0.27000
N386        N  0.16759575  0.38177018  0.16172748    -0.34800
C387        C  0.16255151  0.39337936  0.17298695     0.01400
C388        C  0.17339846  0.40177098  0.17841119     0.07400
C389        C  0.18507926  0.39449561  0.16998389    -0.05700
H390        H  0.15178109  0.39541202  0.17739566     0.08100
H391        H  0.19567430  0.39740072  0.17224761     0.09300
Cu392      Cu  0.15602422  0.36552609  0.14890706     0.44200
Cu393      Cu  0.19400010  0.36579291  0.14769386     0.42000
Cu394      Cu  0.17548089  0.33592244  0.12683988     0.43900
N395        N  0.14709234  0.34945726  0.12986826    -0.34400
N396        N  0.15448647  0.33862897  0.12129730    -0.28600
C397        C  0.14663756  0.33123068  0.10616755    -0.04700
C398        C  0.13363328  0.33769069  0.10516652     0.07500
C399        C  0.13423900  0.34917916  0.12056368     0.01300
H400        H  0.15044352  0.32244422  0.09524491     0.09000
H401        H  0.12639877  0.35745037  0.12288748     0.08000
N402        N  0.19662852  0.33572141  0.13127639    -0.35800
N403        N  0.20358968  0.34662366  0.13839429    -0.28000
C404        C  0.21710884  0.34280145  0.13951036    -0.03200
C405        C  0.21863366  0.32883300  0.13279921     0.05400
C406        C  0.20544019  0.32472201  0.12770478     0.03500
H407        H  0.22515405  0.34960376  0.14527487     0.08600
H408        H  0.20239159  0.31444346  0.12206437     0.07400
N409        N  0.18142820  0.38277182  0.36074716    -0.27000
N410        N  0.16778001  0.38300758  0.36119366    -0.34800
C411        C  0.16285195  0.39471784  0.35024452     0.01400
C412        C  0.17389065  0.40237040  0.34300109     0.07400
C413        C  0.18553245  0.39451242  0.34991430    -0.05700
H414        H  0.15201151  0.39736667  0.34743493     0.08100
H415        H  0.19615447  0.39674126  0.34604917     0.09300
Cu416      Cu  0.15625441  0.36765187  0.37692654     0.44200
Cu417      Cu  0.19367754  0.36563522  0.37196157     0.42000
Cu418      Cu  0.17535724  0.33709960  0.39820573     0.43900
N419        N  0.14756020  0.35243371  0.39810724    -0.34400
N420        N  0.15473005  0.34136218  0.40623631    -0.28600
C421        C  0.14692208  0.33443451  0.42195211    -0.04700
C422        C  0.13420803  0.34144933  0.42381038     0.07500
C423        C  0.13492821  0.35279323  0.40835224     0.01300
H424        H  0.15051934  0.32538593  0.43228137     0.09000
H425        H  0.12726155  0.36123012  0.40613097     0.08000
N426        N  0.19613727  0.33575322  0.38929673    -0.35800
N427        N  0.20292491  0.34623911  0.38019772    -0.28000
C428        C  0.21613944  0.34193748  0.37637695    -0.03200
C429        C  0.21770384  0.32807111  0.38331269     0.05400
C430        C  0.20481894  0.32450231  0.39142226     0.03500
H431        H  0.22394789  0.34836960  0.36871880     0.08600
H432        H  0.20191766  0.31447354  0.39834948     0.07400
N433        N  0.10484835  0.34095788  0.46527288    -0.27000
N434        N  0.11413396  0.33306548  0.47708287    -0.34800
C435        C  0.12554765  0.33144941  0.46341069     0.01400
C436        C  0.12349832  0.33881444  0.44201644     0.07400
C437        C  0.11023706  0.34474218  0.44371171    -0.05700
H438        H  0.13505406  0.32627946  0.46954817     0.08100
H439        H  0.10512799  0.35173652  0.43077959     0.09300
Cu440      Cu  0.11263035  0.32786522  0.01342932     0.44200
Cu441      Cu  0.08588847  0.34666229  0.48085820     0.42000
Cu442      Cu  0.08569908  0.34445873  0.04795874     0.43900
N443        N  0.11383914  0.33068248  0.05072679    -0.34400
N444        N  0.10439206  0.33786772  0.06345949    -0.28600
C445        C  0.10960228  0.34075995  0.08567832    -0.04700
C446        C  0.12293665  0.33500404  0.08685759     0.07500
C447        C  0.12521058  0.32862549  0.06445311     0.01300
H448        H  0.10441024  0.34727959  0.09931250     0.09000
H449        H  0.13489337  0.32412846  0.05768779     0.08000
N450        N  0.06817770  0.34742070  0.02636710    -0.35800
N451        N  0.06820560  0.34822905  0.00222703    -0.28000
C452        C  0.05505418  0.34875940  0.49423392    -0.03200
C453        C  0.04637878  0.34829237  0.01411576     0.05400
C454        C  0.05504729  0.34745848  0.03421255     0.03500
H455        H  0.05210661  0.34891707  0.47516478     0.08600
H456        H  0.05207771  0.34635260  0.05311964     0.07400
N457        N  0.17877230  0.43389699  0.30744708    -0.27000
N458        N  0.16810780  0.42854156  0.29621643    -0.34800
C459        C  0.16434348  0.41710265  0.30816560     0.01400
C460        C  0.17319823  0.41492711  0.32763504     0.07400
C461        C  0.18228179  0.42573580  0.32669492    -0.05700
H462        H  0.15669657  0.41004616  0.30162480     0.08100
H463        H  0.19109461  0.42721067  0.33844819     0.09300
Cu464      Cu  0.16265060  0.43326306  0.26073046     0.44200
Cu465      Cu  0.18836706  0.45128177  0.29357147     0.42000
Cu466      Cu  0.18801573  0.45092561  0.22736310     0.43900
N467        N  0.16779071  0.42822930  0.22517136    -0.34400
N468        N  0.17831866  0.43355479  0.21369098    -0.28600
C469        C  0.18169996  0.42531534  0.19437821    -0.04700
C470        C  0.17269077  0.41444687  0.19367211     0.07500
C471        C  0.16399428  0.41668703  0.21333476     0.01300
H472        H  0.19041754  0.42675758  0.18248360     0.09000
H473        H  0.15646362  0.40961808  0.22007290     0.08000
N474        N  0.19320155  0.46821887  0.24811082    -0.35800
N475        N  0.19331000  0.46840958  0.27228568    -0.28000
C476        C  0.19560522  0.48150681  0.28000709    -0.03200
C477        C  0.19697217  0.48996491  0.25974256     0.05400
C478        C  0.19543368  0.48115614  0.23985609     0.03500
H479        H  0.19563574  0.48473815  0.29897227     0.08600
H480        H  0.19525228  0.48405723  0.22077991     0.07400
N481        N  0.83859189  0.32637917  0.10630120    -0.27000
N482        N  0.84295271  0.33890340  0.11191438    -0.34800
C483        C  0.85608613  0.33973305  0.10406821     0.01400
C484        C  0.85998906  0.32712534  0.09291921     0.07400
C485        C  0.84863895  0.31896734  0.09472746    -0.05700
H486        H  0.86207420  0.34900508  0.10531266     0.08100
H487        H  0.84755416  0.30854505  0.08738989     0.09300
Cu488      Cu  0.83004923  0.35411728  0.12868255     0.44200
Cu489      Cu  0.81896520  0.31992408  0.11252185     0.42000
Cu490      Cu  0.79441422  0.34299718  0.14093940     0.43900
N491        N  0.81497946  0.36599210  0.14775111    -0.34400
N492        N  0.80243775  0.36172687  0.15250011    -0.28600
C493        C  0.79601222  0.37097551  0.16759912    -0.04700
C494        C  0.80478082  0.38166030  0.17245710     0.07500
C495        C  0.81670343  0.37823083  0.15950230     0.01300
H496        H  0.78587526  0.36970031  0.17529531     0.09000
H497        H  0.82625029  0.38369659  0.15995500     0.08000
N498        N  0.78966664  0.32303048  0.12955579    -0.35800
N499        N  0.79900307  0.31460213  0.11899952    -0.28000
C500        C  0.79354834  0.30220990  0.11447085    -0.03200
C501        C  0.78008082  0.30277022  0.12266365     0.05400
C502        C  0.77789880  0.31615542  0.13210332     0.03500
H503        H  0.79913850  0.29335738  0.10631936     0.08600
H504        H  0.76862183  0.32045772  0.14070944     0.07400
N505        N  0.83674219  0.32639956  0.42165754    -0.27000
N506        N  0.84157224  0.33837512  0.41425524    -0.34800
C507        C  0.85474569  0.33913531  0.42206488     0.01400
C508        C  0.85819733  0.32706558  0.43506090     0.07400
C509        C  0.84652203  0.31929447  0.43440188    -0.05700
H510        H  0.86115306  0.34796902  0.41918262     0.08100
H511        H  0.84512493  0.30926664  0.44289643     0.09300
Cu512      Cu  0.82927308  0.35291272  0.39470663     0.44200
Cu513      Cu  0.81704470  0.32009684  0.41495648     0.42000
Cu514      Cu  0.79405894  0.34110989  0.37919546     0.43900
N515        N  0.81452762  0.36432923  0.37413433    -0.34400
N516        N  0.80225093  0.35975935  0.36808795    -0.28600
C517        C  0.79592711  0.36899708  0.35297110    -0.04700
C518        C  0.80445562  0.38001174  0.34949690     0.07500
C519        C  0.81615366  0.37677005  0.36323229     0.01300
H520        H  0.78593557  0.36761973  0.34466083     0.09000
H521        H  0.82545022  0.38262915  0.36417284     0.08000
N522        N  0.78860493  0.32200808  0.39321611    -0.35800
N523        N  0.79735157  0.31439268  0.40662785    -0.28000
C524        C  0.79163849  0.30235349  0.41249028    -0.03200
C525        C  0.77861943  0.30228244  0.40223405     0.05400
C526        C  0.77695261  0.31495756  0.39017810     0.03500
H527        H  0.79678776  0.29411520  0.42294810     0.08600
H528        H  0.76816059  0.31858999  0.37941488     0.07400
N529        N  0.80427632  0.41088264  0.31051481    -0.27000
N530        N  0.79606059  0.40267579  0.29822576    -0.34800
C531        C  0.79440821  0.39089871  0.31090276     0.01400
C532        C  0.80213554  0.39153443  0.33205541     0.07400
C533        C  0.80829974  0.40435161  0.33129181    -0.05700
H534        H  0.78897535  0.38200114  0.30416137     0.08100
H535        H  0.81550781  0.40840562  0.34439509     0.09300
Cu536      Cu  0.79110852  0.40546919  0.26185592     0.44200
Cu537      Cu  0.81007410  0.43000469  0.29652424     0.42000
Cu538      Cu  0.81074945  0.43028100  0.22994842     0.43900
N539        N  0.79648749  0.40320580  0.22555477    -0.34400
N540        N  0.80492196  0.41152812  0.21425493    -0.28600
C541        C  0.80897021  0.40542162  0.19303117    -0.04700
C542        C  0.80258363  0.39276455  0.19092289     0.07500
C543        C  0.79472699  0.39176601  0.21179185     0.01300
H544        H  0.81629068  0.40966932  0.18047236     0.09000
H545        H  0.78906609  0.38284312  0.21753043     0.08000
N546        N  0.81271982  0.44806682  0.25164170    -0.35800
N547        N  0.81248592  0.44799605  0.27581988    -0.28000
C548        C  0.81310826  0.46124937  0.28406606    -0.03200
C549        C  0.81372038  0.47008966  0.26415519     0.05400
C550        C  0.81347024  0.46135248  0.24392423     0.03500
H551        H  0.81276998  0.46424276  0.30314870     0.08600
H552        H  0.81350937  0.46442006  0.22493542     0.07400
N553        N  0.89250190  0.32463143  0.05943178    -0.27000
N554        N  0.88531621  0.31501932  0.04832689    -0.34800
C555        C  0.87316723  0.31396989  0.05964348     0.01400
C556        C  0.87247679  0.32352920  0.07861138     0.07400
C557        C  0.88493338  0.33014223  0.07806131    -0.05700
H558        H  0.86484058  0.30783415  0.05282758     0.08100
H559        H  0.88793357  0.33880639  0.08939742     0.09300
Cu560      Cu  0.88917042  0.30817437  0.01320573     0.44200
Cu561      Cu  0.91132489  0.33058808  0.04554941     0.42000
Cu562      Cu  0.91062039  0.33020547  0.47933852     0.43900
N563        N  0.88429811  0.31502063  0.47848214    -0.34400
N564        N  0.89139091  0.32437665  0.46675206    -0.28600
C565        C  0.88348346  0.32982901  0.44854702    -0.04700
C566        C  0.87087523  0.32348787  0.44896080     0.07500
C567        C  0.87184123  0.31411831  0.46804504     0.01300
H568        H  0.88639669  0.33827804  0.43682337     0.09000
H569        H  0.86359037  0.30815481  0.47543997     0.08000
N570        N  0.92846145  0.33292132  0.49983614    -0.35800
N571        N  0.92873306  0.33298265  0.02398480    -0.28000
C572        C  0.94177793  0.33456006  0.03164114    -0.03200
C573        C  0.95017809  0.33554341  0.01134762     0.05400
C574        C  0.94136865  0.33445477  0.49150576     0.03500
H575        H  0.94487629  0.33498969  0.05061657     0.08600
H576        H  0.94414987  0.33468990  0.47238853     0.07400
N577        N  0.17913667  0.73214693  0.10916478    -0.27000
N578        N  0.17582357  0.71931875  0.11496411    -0.34800
C579        C  0.16307405  0.71703928  0.10643545     0.01400
C580        C  0.15826149  0.72897813  0.09449930     0.07400
C581        C  0.16869688  0.73831685  0.09657172    -0.05700
H582        H  0.15804898  0.70717622  0.10760713     0.08100
H583        H  0.16891845  0.74865754  0.08871312     0.09300
Cu584      Cu  0.18933244  0.70523664  0.13224329     0.44200
Cu585      Cu  0.19798336  0.74051185  0.11685872     0.42000
Cu586      Cu  0.22313399  0.71835160  0.14781579     0.43900
N587        N  0.20424087  0.69392777  0.15185441    -0.34400
N588        N  0.21630003  0.69884493  0.15821969    -0.28600
C589        C  0.22284002  0.68953696  0.17302012    -0.04700
C590        C  0.21458932  0.67818203  0.17583699     0.07500
C591        C  0.20289934  0.68129809  0.16210718     0.01300
H592        H  0.23273120  0.69108377  0.18158409     0.09000
H593        H  0.19377625  0.67519768  0.16070642     0.08000
N594        N  0.22695601  0.73866441  0.13669234    -0.35800
N595        N  0.21754743  0.74676154  0.12558534    -0.28000
C596        C  0.22277530  0.75929863  0.12126415    -0.03200
C597        C  0.23616928  0.75914504  0.13000879     0.05400
C598        C  0.23850138  0.74588087  0.13966466     0.03500
H599        H  0.21717981  0.76789640  0.11245393     0.08600
H600        H  0.24781817  0.74181572  0.14844811     0.07400
N601        N  0.21664136  0.69766694  0.36572876    -0.27000
N602        N  0.20428774  0.69301940  0.37067441    -0.34800
C603        C  0.20292200  0.68059670  0.35947752     0.01400
C604        C  0.21489813  0.67735544  0.34664763     0.07400
C605        C  0.22335538  0.68840769  0.35094768    -0.05700
H606        H  0.19360907  0.67474535  0.35959184     0.08100
H607        H  0.23348712  0.68982242  0.34332980     0.09300
Cu608      Cu  0.18903675  0.70434872  0.38976214     0.44200
Cu609      Cu  0.22355217  0.71688982  0.37740323     0.42000
Cu610      Cu  0.19737520  0.73951476  0.40519978     0.43900
N611        N  0.17535964  0.71832461  0.40730222    -0.34400
N612        N  0.17861911  0.73121712  0.41299146    -0.28600
C613        C  0.16826247  0.73743503  0.42573950    -0.04700
C614        C  0.15790398  0.72806011  0.42808907     0.07500
C615        C  0.16269263  0.71603671  0.41612196     0.01300
H616        H  0.16850524  0.74783903  0.43353295     0.09000
H617        H  0.15770935  0.70613777  0.41510577     0.08000
N618        N  0.21697758  0.74573050  0.39745662    -0.35800
N619        N  0.22676316  0.73743947  0.38778177    -0.28000
C620        C  0.23827114  0.74470692  0.38532540    -0.03200
C621        C  0.23550458  0.75820423  0.39380180     0.05400
C622        C  0.22191673  0.75846216  0.40132931     0.03500
H623        H  0.24786420  0.74050965  0.37770059     0.08600
H624        H  0.21601152  0.76721760  0.40912746     0.07400
N625        N  0.21438749  0.64664611  0.21301918    -0.27000
N626        N  0.22355190  0.65402627  0.22479922    -0.34800
C627        C  0.22550214  0.66592622  0.21261446     0.01400
C628        C  0.21705159  0.66620567  0.19229353     0.07400
C629        C  0.21012478  0.65381516  0.19305621    -0.05700
H630        H  0.23163173  0.67433822  0.21931718     0.08100
H631        H  0.20213455  0.65056436  0.18068853     0.09300
Cu632      Cu  0.22937186  0.65040868  0.26052147     0.44200
Cu633      Cu  0.20721966  0.62799498  0.22678153     0.42000
Cu634      Cu  0.20692722  0.62820571  0.29272994     0.43900
N635        N  0.22376024  0.65379014  0.29643342    -0.34400
N636        N  0.21443687  0.64644012  0.30762852    -0.28600
C637        C  0.21025755  0.65337290  0.32794779    -0.04700
C638        C  0.21740120  0.66558973  0.32960374     0.07500
C639        C  0.22591012  0.66546581  0.30940277     0.01300
H640        H  0.20215130  0.65010981  0.33993367     0.09000
H641        H  0.23216383  0.67387751  0.30329893     0.08000
N642        N  0.20276982  0.61065833  0.27179679    -0.35800
N643        N  0.20295315  0.61050432  0.24763161    -0.28000
C644        C  0.20110969  0.59734786  0.23973555    -0.03200
C645        C  0.19972920  0.58881239  0.25989417     0.05400
C646        C  0.20078664  0.59763750  0.27988990     0.03500
H647        H  0.20130007  0.59416346  0.22074542     0.08600
H648        H  0.20072107  0.59472525  0.29895723     0.07400
N649        N  0.12664692  0.72570511  0.46420115    -0.27000
N650        N  0.13290572  0.73585304  0.47566787    -0.34800
C651        C  0.14442546  0.73876958  0.46353240     0.01400
C652        C  0.14562845  0.72990541  0.44361471     0.07400
C653        C  0.13416963  0.72174300  0.44449538    -0.05700
H654        H  0.15210535  0.74574685  0.47021447     0.08100
H655        H  0.13189137  0.71307490  0.43258260     0.09300
Cu656      Cu  0.12884323  0.74143125  0.01130777     0.44200
Cu657      Cu  0.10920354  0.71696191  0.47850796     0.42000
Cu658      Cu  0.10935874  0.71719761  0.04489325     0.43900
N659        N  0.13305270  0.73617066  0.04703751    -0.34400
N660        N  0.12683720  0.72618537  0.05879508    -0.28600
C661        C  0.13443564  0.72250396  0.07854622    -0.04700
C662        C  0.14589523  0.73067870  0.07913962     0.07500
C663        C  0.14462175  0.73925039  0.05901677     0.01300
H664        H  0.13221453  0.71399379  0.09067083     0.09000
H665        H  0.15228664  0.74611198  0.05209632     0.08000
N666        N  0.09227481  0.71262272  0.02388208    -0.35800
N667        N  0.09219476  0.71257468  0.99971200    -0.28000
C668        C  0.07920392  0.71090262  0.49174264    -0.03200
C669        C  0.07075282  0.70973454  0.01195012     0.05400
C670        C  0.07938059  0.71086178  0.03196793     0.03500
H671        H  0.07613057  0.71101841  0.47273448     0.08600
H672        H  0.07641922  0.71109412  0.05101247     0.07400
N673        N  0.86371212  0.71731908  0.40610344    -0.27000
N674        N  0.87048471  0.70566769  0.39934897    -0.34800
C675        C  0.88315762  0.70536949  0.40948876     0.01400
C676        C  0.88431341  0.71734917  0.42347716     0.07400
C677        C  0.87180482  0.72466315  0.42092331    -0.05700
H678        H  0.89058210  0.69664745  0.40814700     0.08100
H679        H  0.86859946  0.73433612  0.42997106     0.09300
Cu680      Cu  0.86134935  0.68983041  0.37995501     0.44200
Cu681      Cu  0.84341345  0.72224345  0.39663909     0.42000
Cu682      Cu  0.82435113  0.69416583  0.37015478     0.43900
N683        N  0.84933969  0.67454019  0.36490733    -0.34400
N684        N  0.83576350  0.67575330  0.36253320    -0.28600
C685        C  0.83127024  0.66407628  0.35179854    -0.04700
C686        C  0.84258580  0.65521891  0.34698869     0.07500
C687        C  0.85385382  0.66222191  0.35535555     0.01300
H688        H  0.82072463  0.66264169  0.34612166     0.09000
H689        H  0.86460431  0.65885898  0.35372967     0.08000
N690        N  0.81611965  0.71441562  0.37531354    -0.35800
N691        N  0.82318151  0.72467742  0.38475960    -0.28000
C692        C  0.81521745  0.73652144  0.38485199    -0.03200
C693        C  0.80251074  0.73360107  0.37498914     0.05400
C694        C  0.80343609  0.71948024  0.36916354     0.03500
H695        H  0.81848183  0.74650329  0.39161787     0.08600
H696        H  0.79552695  0.71334237  0.36090020     0.07400
N697        N  0.86362161  0.71484184  0.11595036    -0.27000
N698        N  0.87028421  0.70308605  0.12231710    -0.34800
C699        C  0.88296284  0.70271879  0.11221985     0.01400
C700        C  0.88421848  0.71476707  0.09864639     0.07400
C701        C  0.87177951  0.72218362  0.10146057    -0.05700
H702        H  0.89031732  0.69392906  0.11330391     0.08100
H703        H  0.86865251  0.73194190  0.09277716     0.09300
Cu704      Cu  0.86086126  0.68737174  0.14127637     0.44200
Cu705      Cu  0.84333659  0.72000312  0.12537340     0.42000
Cu706      Cu  0.82373511  0.69271707  0.15147380     0.43900
N707        N  0.84843380  0.67270752  0.15689264    -0.34400
N708        N  0.83488676  0.67429143  0.15939776    -0.28600
C709        C  0.83018876  0.66302829  0.17088308    -0.04700
C710        C  0.84133462  0.65406190  0.17607784     0.07500
C711        C  0.85271929  0.66054804  0.16711321     0.01300
H712        H  0.81964992  0.66202098  0.17686761     0.09000
H713        H  0.86341030  0.65699200  0.16886658     0.08000
N714        N  0.81588704  0.71305126  0.14667662    -0.35800
N715        N  0.82313967  0.72308678  0.13721868    -0.28000
C716        C  0.81545561  0.73511834  0.13742347    -0.03200
C717        C  0.80275191  0.73254216  0.14755968     0.05400
C718        C  0.80338679  0.71843591  0.15320119     0.03500
H719        H  0.81892694  0.74501643  0.13084546     0.08600
H720        H  0.79543288  0.71252273  0.16166842     0.07400
N721        N  0.83482270  0.62448868  0.21515394    -0.27000
N722        N  0.84571391  0.62967977  0.22594415    -0.34800
C723        C  0.85015034  0.64034129  0.21264287     0.01400
C724        C  0.84151975  0.64211722  0.19274402     0.07400
C725        C  0.83184241  0.63196092  0.19489317    -0.05700
H726        H  0.85816361  0.64719889  0.21836732     0.08100
H727        H  0.82302430  0.63045324  0.18316662     0.09300
Cu728      Cu  0.85111719  0.62563471  0.26179659     0.44200
Cu729      Cu  0.82442638  0.60800586  0.22991611     0.42000
Cu730      Cu  0.82608552  0.60764293  0.29575739     0.43900
N731        N  0.84680662  0.62992830  0.29804387    -0.34400
N732        N  0.83642464  0.62450310  0.30980369    -0.28600
C733        C  0.83366609  0.63223326  0.32999317    -0.04700
C734        C  0.84296855  0.64282314  0.33106611     0.07500
C735        C  0.85115195  0.64100466  0.31062023     0.01300
H736        H  0.82514815  0.63067151  0.34227985     0.09000
H737        H  0.85865492  0.64812917  0.30396954     0.08000
N738        N  0.82068697  0.59051854  0.27481729    -0.35800
N739        N  0.82000908  0.59066744  0.25068697    -0.28000
C740        C  0.81787129  0.57763797  0.24252296    -0.03200
C741        C  0.81720811  0.56885206  0.26247255     0.05400
C742        C  0.81900056  0.57739157  0.28263641     0.03500
H743        H  0.81750437  0.57468380  0.22343496     0.08600
H744        H  0.81968991  0.57421675  0.30154850     0.07400
N745        N  0.91437943  0.71697116  0.05925918    -0.27000
N746        N  0.90523581  0.72518404  0.04774101    -0.34800
C747        C  0.89352129  0.72614444  0.06073211     0.01400
C748        C  0.89522178  0.71802167  0.08135363     0.07400
C749        C  0.90857943  0.71231063  0.07990688    -0.05700
H750        H  0.88406582  0.73138414  0.05451063     0.08100
H751        H  0.91350344  0.70490843  0.09236331     0.09300
Cu752      Cu  0.90717911  0.73126789  0.01190605     0.44200
Cu753      Cu  0.93371730  0.71185755  0.04434083     0.42000
Cu754      Cu  0.93364140  0.71310375  0.47780536     0.43900
N755        N  0.90534649  0.72677767  0.47524197    -0.34400
N756        N  0.91447228  0.71886521  0.46302961    -0.28600
C757        C  0.90868153  0.71474614  0.44191037    -0.04700
C758        C  0.89534595  0.72051393  0.44085867     0.07500
C759        C  0.89364371  0.72812699  0.46219426     0.01300
H760        H  0.91354706  0.70754314  0.42894909     0.09000
H761        H  0.88414812  0.73307534  0.46890228     0.08000
N762        N  0.95139733  0.71007125  0.49887016    -0.35800
N763        N  0.95149407  0.70963963  0.02303266    -0.37600
C764        C  0.96466101  0.70839725  0.03089709    -0.03200
C765        C  0.97328806  0.70819354  0.01074799     0.05400
C766        C  0.96449451  0.70923274  0.49076341     0.03500
H767        H  0.96771032  0.70811466  0.04991459     0.08600
H768        H  0.96740799  0.70977517  0.47173717     0.07400
C769        C  0.03453876  0.70910967  0.99952530     0.20700
C770        C  0.02251122  0.70968587  0.98519881    -0.39200
C771        C  0.01006554  0.70875817  0.99799339     0.19600
C772        C  0.00962119  0.70742209  0.02314470     0.22300
C773        C  0.02165487  0.70690166  0.03748910    -0.39700
C774        C  0.03410779  0.70778575  0.02468125     0.21100
N775        N  0.04762408  0.70980099  0.99176197    -0.33000
C776        C  0.05560140  0.70894453  0.01211404    -0.10600
C777        C  0.04753235  0.70767946  0.03301418    -0.29400
N778        N  0.99650810  0.70688629  0.03089679    -0.46000
C779        C  0.98853119  0.70789444  0.01054238    -0.05200
C780        C  0.99664105  0.70905017  0.98965996    -0.22600
H781        H  0.02282107  0.71078676  0.96553737     0.19200
H782        H  0.02134325  0.70590789  0.05716861     0.18000
H783        H  0.05099844  0.70687592  0.05177889     0.14300
H784        H  0.99319203  0.71012907  0.97092537     0.14100
H785        H  0.05089153  0.71093297  0.97370907     0.32300
H786        H  0.99320464  0.70599178  0.04897679     0.35100
C787        C  0.81408793  0.50682747  0.25156331     0.20700
C788        C  0.81412423  0.51890153  0.23706499    -0.39200
C789        C  0.81480046  0.53162966  0.24980633     0.19600
C790        C  0.81538864  0.53226811  0.27505219     0.22300
C791        C  0.81531789  0.52020235  0.28954574    -0.39700
C792        C  0.81464380  0.50747575  0.27680955     0.21100
N793        N  0.81368338  0.49348180  0.24387947    -0.33000
C794        C  0.81397819  0.48553806  0.26434995    -0.10600
C795        C  0.81455177  0.49392057  0.28527118    -0.29400
N796        N  0.81618567  0.54557225  0.28273677    -0.46000
C797        C  0.81610888  0.55350105  0.26226979    -0.05200
C798        C  0.81523684  0.54516193  0.24134288    -0.22600
H799        H  0.81374642  0.51841150  0.21731382     0.19200
H800        H  0.81583780  0.52068581  0.30928701     0.18000
H801        H  0.81493456  0.49056375  0.30411661     0.14300
H802        H  0.81509720  0.54851271  0.22248892     0.14100
H803        H  0.81325879  0.49001171  0.22575533     0.32300
H804        H  0.81685830  0.54901163  0.30084981     0.35100
C805        C  0.19833708  0.52676133  0.27173791     0.20700
C806        C  0.19786403  0.53903205  0.28596448    -0.39200
C807        C  0.19813204  0.55162948  0.27297360     0.19600
C808        C  0.19883173  0.55198411  0.24773557     0.22300
C809        C  0.19929612  0.53970859  0.23349783    -0.39700
C810        C  0.19900593  0.52710482  0.24649477     0.21100
N811        N  0.19790145  0.51351305  0.27967709    -0.33000
C812        C  0.19819660  0.50532203  0.25936763    -0.10600
C813        C  0.19895881  0.51344243  0.23830355    -0.29400
N814        N  0.19917829  0.56525052  0.23982514    -0.46000
C815        C  0.19875715  0.57342606  0.26016239    -0.05200
C816        C  0.19803151  0.56528343  0.28119317    -0.22600
H817        H  0.19730651  0.53878755  0.30570568     0.19200
H818        H  0.19980902  0.53995534  0.21375264     0.18000
H819        H  0.19914126  0.50987241  0.21951025     0.14300
H820        H  0.19773425  0.56883864  0.29999217     0.14100
H821        H  0.19713436  0.51028544  0.29783001     0.32300
H822        H  0.19990482  0.56850650  0.22168522     0.35100
C823        C  0.98590082  0.34048847  0.02402031     0.20700
C824        C  0.99768903  0.34179512  0.03862246    -0.39200
C825        C  0.00992849  0.34427469  0.02608241     0.19600
C826        C  0.01041136  0.34539613  0.00090186     0.22300
C827        C  0.99859982  0.34409966  0.98626495    -0.39700
C828        C  0.98633824  0.34157689  0.99882895     0.21100
N829        N  0.97305383  0.33808185  0.03158157    -0.33000
C830        C  0.96518807  0.33763377  0.01110963    -0.10600
C831        C  0.97313098  0.33972623  0.99027216    -0.29400
N832        N  0.02339149  0.34732774  0.99342127    -0.46000
C833        C  0.03122802  0.34736175  0.01398670    -0.05200
C834        C  0.02316190  0.34556422  0.03472348    -0.22600
H835        H  0.99737474  0.34082775  0.05830624     0.19200
H836        H  0.99895656  0.34487114  0.96655525     0.18000
H837        H  0.96969890  0.33998511  0.97144849     0.14300
H838        H  0.02655816  0.34490256  0.05354200     0.14100
H839        H  0.96984898  0.33686702  0.04964935     0.32300
H840        H  0.02673927  0.34824635  0.97537424     0.35100
C841        C  0.24364026  0.30043168  0.38426491     0.20700
C842        C  0.24895862  0.28673330  0.38762086    -0.39200
C843        C  0.26328014  0.28482017  0.38508393     0.19600
C844        C  0.27168627  0.29569643  0.37947632     0.22300
C845        C  0.26635394  0.30942831  0.37602715    -0.39700
C846        C  0.25199308  0.31135500  0.37865331     0.21100
N847        N  0.23042234  0.30498465  0.38638997    -0.33000
C848        C  0.23029526  0.31892559  0.38212244    -0.10600
C849        C  0.24355892  0.32329310  0.37709736    -0.29400
N850        N  0.28496023  0.29110052  0.37823525    -0.46000
C851        C  0.28496939  0.27721207  0.38316429    -0.05200
C852        C  0.27163313  0.27293550  0.38754988    -0.22600
H853        H  0.24243250  0.27821019  0.39213216     0.19200
H854        H  0.27290266  0.31798396  0.37181782     0.18000
H855        H  0.24664888  0.33380076  0.37328968     0.14300
H856        H  0.26845336  0.26252590  0.39186804     0.14100
H857        H  0.22202803  0.29895653  0.39067174     0.32300
H858        H  0.29346830  0.29706343  0.37439162     0.35100
C859        C  0.26607740  0.28717300  0.13294274     0.20700
C860        C  0.25185546  0.28794412  0.12819770    -0.39200
C861        C  0.24547610  0.30131921  0.12996553     0.19600
C862        C  0.25269267  0.31305384  0.13593207     0.22300
C863        C  0.26694444  0.31228876  0.14059609    -0.39700
C864        C  0.27332452  0.29888430  0.13893861     0.21100
N865        N  0.27440944  0.27561514  0.13323927    -0.33000
C866        C  0.28705351  0.27996665  0.13961196    -0.10600
C867        C  0.28679916  0.29442890  0.14323940    -0.29400
N868        N  0.24412447  0.32443995  0.13730990    -0.46000
C869        C  0.23136568  0.31988604  0.13224472    -0.05200
C870        C  0.23182338  0.30553683  0.12745602    -0.22600
H871        H  0.24613353  0.27876865  0.12386990     0.19200
H872        H  0.27259470  0.32140436  0.14559105     0.18000
H873        H  0.29527243  0.30080441  0.14858763     0.14300
H874        H  0.22328189  0.29898512  0.12329784     0.14100
H875        H  0.27158931  0.26537799  0.12972240     0.32300
H876        H  0.24676859  0.33460448  0.14184522     0.35100
C877        C  0.31715812  0.04582123  0.02811303     0.20700
C878        C  0.31729559  0.05797265  0.04262106    -0.39200
C879        C  0.31658360  0.07069384  0.02991372     0.19600
C880        C  0.31583750  0.07126182  0.00468398     0.22300
C881        C  0.31572954  0.05911282  0.99017322    -0.39700
C882        C  0.31640523  0.04639694  0.00288319     0.21100
N883        N  0.31751182  0.03247891  0.03577066    -0.33000
C884        C  0.31695349  0.02447763  0.01528362    -0.10600
C885        C  0.31629458  0.03280594  0.99440115    -0.29400
N886        N  0.31539786  0.08460035  0.99702669    -0.46000
C887        C  0.31588810  0.09262352  0.01750192    -0.05200
C888        C  0.31659646  0.08429951  0.03839144    -0.22600
H889        H  0.31787912  0.05755308  0.06235561     0.19200
H890        H  0.31513084  0.05953178  0.97043855     0.18000
H891        H  0.31563071  0.02940237  0.97556579     0.14300
H892        H  0.31725694  0.08771569  0.05721939     0.14100
H893        H  0.31796970  0.02905399  0.05387255     0.32300
H894        H  0.31496324  0.08800568  0.97890715     0.35100
C895        C  0.26959115  0.81015670  0.12527785     0.20700
C896        C  0.25634910  0.80577575  0.11939643    -0.39200
C897        C  0.25393752  0.79170109  0.12420062     0.19600
C898        C  0.26393656  0.78266793  0.13411376     0.22300
C899        C  0.27721567  0.78704148  0.13989086    -0.39700
C900        C  0.27963337  0.80113496  0.13508957     0.21100
N901        N  0.27435976  0.82306087  0.12286036    -0.33000
C902        C  0.28755261  0.82228782  0.13118128    -0.10600
C903        C  0.29122376  0.80875743  0.13892553    -0.29400
N904        N  0.25894936  0.76989552  0.13737009    -0.46000
C905        C  0.24567978  0.77080741  0.12944045    -0.05200
C906        C  0.24220795  0.78425027  0.12104000    -0.22600
H907        H  0.24846500  0.81283783  0.11183198     0.19200
H908        H  0.28504389  0.78002606  0.14774353     0.18000
H909        H  0.30099547  0.80502351  0.14653098     0.14300
H910        H  0.23238105  0.78811948  0.11384966     0.14100
H911        H  0.26891501  0.83185398  0.11607981     0.32300
H912        H  0.26423368  0.76114115  0.14465360     0.35100
C913        C  0.25239521  0.79054102  0.40025922     0.20700
C914        C  0.25357372  0.80481389  0.40558243    -0.39200
C915        C  0.26678560  0.81000847  0.40261121     0.19600
C916        C  0.27792890  0.80161736  0.39492861     0.22300
C917        C  0.27674199  0.78736224  0.38962572    -0.39700
C918        C  0.26354920  0.78217414  0.39256274     0.21100
N919        N  0.24099198  0.78308332  0.40161593    -0.33000
C920        C  0.24492067  0.76987992  0.39470657    -0.10600
C921        C  0.25891709  0.76891018  0.38888437    -0.29400
N922        N  0.28932955  0.80905179  0.39327656    -0.46000
C923        C  0.28545224  0.82229146  0.39994043    -0.05200
C924        C  0.27145305  0.82330174  0.40594997    -0.22600
H925        H  0.24485257  0.81138381  0.41152993     0.19200
H926        H  0.28544561  0.78080473  0.38357274     0.18000
H927        H  0.26491318  0.75974223  0.38289610     0.14300
H928        H  0.26546512  0.83252105  0.41172942     0.14100
H929        H  0.23115782  0.78678173  0.40689263     0.32300
H930        H  0.29912285  0.80533120  0.38781550     0.35100
C931        C  0.51350233  0.82508259  0.27841696     0.20700
C932        C  0.50163085  0.82699477  0.29289832    -0.39200
C933        C  0.48927710  0.82993288  0.28017841     0.19600
C934        C  0.48879521  0.83090561  0.25496808     0.22300
C935        C  0.50067623  0.82903601  0.24049318    -0.39700
C936        C  0.51302882  0.82607236  0.25320880     0.21100
N937        N  0.52644457  0.82201930  0.28606928    -0.33000
C938        C  0.53430138  0.82102361  0.26561717    -0.10600
C939        C  0.52628539  0.82350987  0.24473688    -0.29400
N940        N  0.47580477  0.83370246  0.24728749    -0.46000
C941        C  0.46793049  0.83453306  0.26772971    -0.05200
C942        C  0.47598841  0.83225236  0.28862624    -0.22600
H943        H  0.50198049  0.82618681  0.31261054     0.19200
H944        H  0.50031370  0.82976170  0.22077246     0.18000
H945        H  0.52966425  0.82336977  0.22590529     0.14300
H946        H  0.47260056  0.83228284  0.30745115     0.14100
H947        H  0.52969317  0.82060361  0.30415047     0.32300
H948        H  0.47252561  0.83500457  0.22919927     0.35100
C949        C  0.75751981  0.77668447  0.15448657     0.20700
C950        C  0.77151247  0.77527835  0.14794939    -0.39200
C951        C  0.77778480  0.76192687  0.15125629     0.19600
C952        C  0.77067453  0.75087452  0.16049389     0.22300
C953        C  0.75673383  0.75230324  0.16715563    -0.39700
C954        C  0.75045602  0.76560301  0.16372667     0.21100
N955        N  0.74897544  0.78799653  0.15166471    -0.33000
C956        C  0.73637387  0.78402712  0.15900569    -0.10600
C957        C  0.73693455  0.77016504  0.16683431    -0.29400
N958        N  0.77871928  0.73911209  0.16076538    -0.46000
C959        C  0.79104922  0.74264111  0.15152131    -0.05200
C960        C  0.79089095  0.75681763  0.14550555    -0.22600
H961        H  0.77699828  0.78382964  0.14022281     0.19200
H962        H  0.75108231  0.74359104  0.17386571     0.18000
H963        H  0.72849624  0.76406692  0.17312024     0.14300
H964        H  0.79911603  0.76253414  0.13742196     0.14100
H965        H  0.75148186  0.79764970  0.14445229     0.32300
H966        H  0.77585779  0.72922573  0.16636119     0.35100
C967        C  0.74984745  0.76753343  0.36528194     0.20700
C968        C  0.75521297  0.75396068  0.36059143    -0.39200
C969        C  0.76934983  0.75172752  0.36510096     0.19600
C970        C  0.77754597  0.76222370  0.37359976     0.22300
C971        C  0.77218354  0.77585553  0.37820251    -0.39700
C972        C  0.75799379  0.77808171  0.37374988     0.21100
N973        N  0.73660117  0.77204447  0.36363746    -0.33000
C974        C  0.73621543  0.78555569  0.37123248    -0.10600
C975        C  0.74939399  0.78974995  0.37755929    -0.29400
N976        N  0.79049191  0.75719466  0.37765519    -0.46000
C977        C  0.79049841  0.74339033  0.37180432    -0.05200
C978        C  0.77751077  0.73963207  0.36371735    -0.22600
H979        H  0.74877067  0.74565164  0.35446541     0.19200
H980        H  0.77850959  0.78401211  0.38531248     0.18000
H981        H  0.75223306  0.79980525  0.38469707     0.14300
H982        H  0.77433154  0.72934697  0.35835304     0.14100
H983        H  0.72828716  0.76612480  0.35829971     0.32300
H984        H  0.79870091  0.76274991  0.38457101     0.35100
C985        C  0.70824232  0.98663435  0.00491045     0.20700
C986        C  0.70705170  0.99873600  0.99047309    -0.39200
C987        C  0.70666831  0.01153256  0.00322138     0.19600
C988        C  0.70745496  0.01222980  0.02843635     0.22300
C989        C  0.70867949  0.00012288  0.04288456    -0.39700
C990        C  0.70901606  0.98731706  0.03013187     0.21100
N991        N  0.70809070  0.97325310  0.99725879    -0.33000
C992        C  0.70861884  0.96529940  0.01772457    -0.10600
C993        C  0.70935928  0.97372696  0.03859688    -0.29400
N994        N  0.70692354  0.02563361  0.03611159    -0.46000
C995        C  0.70585456  0.03357664  0.01565550    -0.05200
C996        C  0.70559544  0.02511240  0.99477965    -0.22600
H997        H  0.70631069  0.99822055  0.97075671     0.19200
H998        H  0.70915502  0.00063353  0.06262721     0.18000
H999        H  0.70953214  0.97040645  0.05746597     0.14300
H1000       H  0.70492361  0.02843124  0.97593228     0.14100
H1001       H  0.70715658  0.96979107  0.97920081     0.32300
H1002       H  0.70745161  0.02914584  0.05420054     0.35100
C1003       C  0.53220405  0.22645826  0.27645847     0.20700
C1004       C  0.52052527  0.22942605  0.29100486    -0.39200
C1005       C  0.50803340  0.23168165  0.27834594     0.19600
C1006       C  0.50724843  0.23114209  0.25310953     0.22300
C1007       C  0.51894552  0.22827801  0.23854646    -0.39700
C1008       C  0.53142213  0.22591759  0.25121843     0.21100
N1009       N  0.54507892  0.22303507  0.28412542    -0.33000
C1010       C  0.55255448  0.22019586  0.26365200    -0.10600
C1011       C  0.54440163  0.22200631  0.24274726    -0.29400
N1012       N  0.49411511  0.23316443  0.24556967    -0.46000
C1013       C  0.48645007  0.23495800  0.26613936    -0.05200
C1014       C  0.49479515  0.23413772  0.28694964    -0.22600
H1015       H  0.52106410  0.22959907  0.31075836     0.19200
H1016       H  0.51831663  0.22757901  0.21883260     0.18000
H1017       H  0.54741879  0.22019949  0.22393628     0.14300
H1018       H  0.49160253  0.23503400  0.30584165     0.14100
H1019       H  0.54845246  0.22227697  0.30224988     0.32300
H1020       H  0.49057935  0.23312274  0.22750172     0.35100
C1021       C  0.74620470  0.25093054  0.40961459     0.20700
C1022       C  0.75923306  0.25577526  0.41549466    -0.39200
C1023       C  0.76139961  0.26968411  0.40932711     0.19600
C1024       C  0.75141994  0.27816411  0.39802326     0.22300
C1025       C  0.73833018  0.27330612  0.39215949    -0.39700
C1026       C  0.73612134  0.25935469  0.39845715     0.21100
N1027       N  0.74171924  0.23803774  0.41328177    -0.33000
C1028       C  0.72866206  0.23817919  0.40439768    -0.10600
C1029       C  0.72476662  0.25132070  0.39507755    -0.29400
N1030       N  0.75618967  0.29096145  0.39395049    -0.46000
C1031       C  0.76926004  0.29055581  0.40289101    -0.05200
C1032       C  0.77283615  0.27746060  0.41259081    -0.22600
H1033       H  0.76712667  0.24918080  0.42417879     0.19200
H1034       H  0.73048116  0.27986691  0.38329270     0.18000
H1035       H  0.71505341  0.25449702  0.38660251     0.14300
H1036       H  0.78254207  0.27401757  0.42080440     0.14100
H1037       H  0.74729429  0.22963587  0.42113868     0.32300
H1038       H  0.75089176  0.29941004  0.38568717     0.35100
C1039       C  0.74725763  0.25157071  0.11831369     0.20700
C1040       C  0.76036982  0.25609131  0.11236370    -0.39200
C1041       C  0.76261821  0.27016008  0.11741219     0.19600
C1042       C  0.75261320  0.27909256  0.12766451     0.22300
C1043       C  0.73944893  0.27455136  0.13364421    -0.39700
C1044       C  0.73717367  0.26042693  0.12853504     0.21100
N1045       N  0.74268668  0.23862561  0.11558477    -0.33000
C1046       C  0.72958271  0.23916086  0.12416148    -0.10600
C1047       C  0.72573584  0.25260664  0.13234815    -0.29400
N1048       N  0.75746189  0.29195578  0.13080331    -0.46000
C1049       C  0.77062593  0.29112679  0.12242606    -0.05200
C1050       C  0.77417814  0.27769978  0.11394425    -0.22600
H1051       H  0.76826755  0.24914144  0.10447290     0.19200
H1052       H  0.73160032  0.28146703  0.14175646     0.18000
H1053       H  0.71598886  0.25613369  0.14030190     0.14300
H1054       H  0.78393934  0.27389712  0.10639885     0.14100
H1055       H  0.74824150  0.22994456  0.10852114     0.32300
H1056       H  0.75217350  0.30069853  0.13823965     0.35100
N1057       N  0.66921572  0.19257970  0.65478945    -0.27000
N1058       N  0.66988193  0.17874649  0.65416698    -0.34800
C1059       C  0.65917356  0.17386737  0.66649443     0.01400
C1060       C  0.65122173  0.18510922  0.67499899     0.07400
C1061       C  0.65781524  0.19686076  0.66724172    -0.05700
H1062       H  0.65762882  0.16291383  0.66990220     0.08100
H1063       H  0.65515693  0.20762892  0.67197872     0.09300
Cu1064     Cu  0.68558129  0.16661169  0.63850865     0.44200
Cu1065     Cu  0.68517446  0.20459049  0.64239575     0.42000
Cu1066     Cu  0.71456655  0.18361853  0.61681625     0.43900
N1067       N  0.70150576  0.15593336  0.62066055    -0.34400
N1068       N  0.71232049  0.16231655  0.61227311    -0.28600
C1069       C  0.72011327  0.15316082  0.59901633    -0.04700
C1070       C  0.71386155  0.14038957  0.59910194     0.07500
C1071       C  0.70211196  0.14251695  0.61311855     0.01300
H1072       H  0.72919267  0.15582935  0.58887530     0.09000
H1073       H  0.69407244  0.13519924  0.61605837     0.08000
N1074       N  0.71428700  0.20505145  0.62261285    -0.35800
N1075       N  0.70383088  0.21269667  0.63178361    -0.28000
C1076       C  0.70754293  0.22608053  0.63357125    -0.03200
C1077       C  0.72091980  0.22684002  0.62503361     0.05400
C1078       C  0.72483223  0.21333857  0.61822839     0.03500
H1079       H  0.70103674  0.23456745  0.64081294     0.08600
H1080       H  0.73469946  0.20968789  0.61093799     0.07400
N1081       N  0.66903068  0.19080166  0.87352669    -0.27000
N1082       N  0.66982886  0.17696470  0.87305041    -0.34800
C1083       C  0.65924177  0.17225765  0.85995116     0.01400
C1084       C  0.65124967  0.18362156  0.85211026     0.07400
C1085       C  0.65769014  0.19524105  0.86106873    -0.05700
H1086       H  0.65777267  0.16136433  0.85567863     0.08100
H1087       H  0.65495987  0.20608324  0.85719655     0.09300
Cu1088     Cu  0.68552631  0.16473911  0.88864990     0.44200
Cu1089     Cu  0.68472025  0.20285432  0.88721074     0.42000
Cu1090     Cu  0.71413489  0.18247756  0.91230833     0.43900
N1091       N  0.70142828  0.15450792  0.90741368    -0.34400
N1092       N  0.71199240  0.16113702  0.91644094    -0.28600
C1093       C  0.71974201  0.15217810  0.93005835    -0.04700
C1094       C  0.71373602  0.13927720  0.92960235     0.07500
C1095       C  0.70217121  0.14112844  0.91495084     0.01300
H1096       H  0.72861425  0.15507566  0.94067837     0.09000
H1097       H  0.69433632  0.13363010  0.91149835     0.08000
N1098       N  0.71383387  0.20391306  0.90676659    -0.35800
N1099       N  0.70324150  0.21138561  0.89775370    -0.28000
C1100       C  0.70680800  0.22479245  0.89577444    -0.03200
C1101       C  0.72024768  0.22576488  0.90402425     0.05400
C1102       C  0.72434589  0.21234361  0.91087104     0.03500
H1103       H  0.70018117  0.23314019  0.88848594     0.08600
H1104       H  0.73433014  0.20884240  0.91787750     0.07400
N1105       N  0.62203862  0.18998618  0.71610398    -0.27000
N1106       N  0.62909786  0.17963591  0.72692191    -0.34800
C1107       C  0.64006525  0.17587688  0.71309525     0.01400
C1108       C  0.64006100  0.18445434  0.69289853     0.07400
C1109       C  0.62854001  0.19332595  0.69535551    -0.05700
H1110       H  0.64814494  0.16837744  0.71849280     0.08100
H1111       H  0.62536854  0.20185348  0.68343343     0.09300
Cu1112     Cu  0.62639808  0.17429191  0.76308645     0.44200
Cu1113     Cu  0.60454264  0.19969131  0.73123353     0.42000
Cu1114     Cu  0.60476009  0.19985059  0.79621152     0.43900
N1115       N  0.62906452  0.17921796  0.79956697    -0.34400
N1116       N  0.62218738  0.18958492  0.81084445    -0.28600
C1117       C  0.62873120  0.19250072  0.83188041    -0.04700
C1118       C  0.64006809  0.18334615  0.83404388     0.07500
C1119       C  0.63992758  0.17504095  0.81335777     0.01300
H1120       H  0.62571867  0.20093756  0.84423886     0.09000
H1121       H  0.64786437  0.16744305  0.80765086     0.08000
N1122       N  0.58781554  0.20712128  0.77587548    -0.35800
N1123       N  0.58775331  0.20692715  0.75173861    -0.28000
C1124       C  0.57530694  0.21162454  0.74366768    -0.03200
C1125       C  0.56711750  0.21500560  0.76370372     0.05400
C1126       C  0.57538946  0.21200160  0.78384839     0.03500
H1127       H  0.57240368  0.21234223  0.72460876     0.08600
H1128       H  0.57253605  0.21302632  0.80288537     0.07400
N1129       N  0.71560720  0.10766180  0.96666279    -0.27000
N1130       N  0.72410757  0.11577182  0.97848850    -0.34800
C1131       C  0.72547657  0.12767174  0.96604920     0.01400
C1132       C  0.71732309  0.12723688  0.94540593     0.07400
C1133       C  0.71122294  0.11435047  0.94624160    -0.05700
H1134       H  0.73078855  0.13660092  0.97297381     0.08100
H1135       H  0.70347221  0.11056590  0.93389061     0.09300
Cu1136     Cu  0.72926796  0.11298017  0.51458139     0.44200
Cu1137     Cu  0.70937515  0.08889246  0.98186352     0.42000
Cu1138     Cu  0.71016068  0.08900382  0.54895956     0.43900
N1139       N  0.72408919  0.11636149  0.55055929    -0.34400
N1140       N  0.71597992  0.10823512  0.56300215    -0.28600
C1141       C  0.71165096  0.11517669  0.58328211    -0.04700
C1142       C  0.71741556  0.12823059  0.58342158     0.07500
C1143       C  0.72526681  0.12853715  0.56247808     0.01300
H1144       H  0.70421694  0.11137603  0.59609933     0.09000
H1145       H  0.73028299  0.13748070  0.55509856     0.08000
N1146       N  0.70723176  0.07117214  0.52762213    -0.35800
N1147       N  0.70689822  0.07115099  0.00351164    -0.28000
C1148       C  0.70581820  0.05786959  0.99560952    -0.03200
C1149       C  0.70558506  0.04908104  0.51559903     0.05400
C1150       C  0.70651818  0.05792014  0.53562410     0.03500
H1151       H  0.70568687  0.05478117  0.97657374     0.08600
H1152       H  0.70713432  0.05491590  0.55463015     0.07400
N1153       N  0.68630865  0.84630060  0.90869576    -0.27000
N1154       N  0.67269009  0.84628328  0.91029243    -0.34800
C1155       C  0.66822482  0.85763106  0.92305012     0.01400
C1156       C  0.67951544  0.86526784  0.92936400     0.07400
C1157       C  0.69080890  0.85780987  0.91994122    -0.05700
H1158       H  0.65758035  0.85991209  0.92806965     0.08100
H1159       H  0.70156214  0.86000797  0.92266765     0.09300
Cu1160     Cu  0.66060633  0.83078464  0.89566533     0.44200
Cu1161     Cu  0.69844989  0.82975593  0.89481225     0.42000
Cu1162     Cu  0.67986923  0.80087003  0.87144745     0.43900
N1163       N  0.65151316  0.81491995  0.87593984    -0.34400
N1164       N  0.65874952  0.80402586  0.86713324    -0.28600
C1165       C  0.65053976  0.79637515  0.85307053    -0.04700
C1166       C  0.63746488  0.80269666  0.85291525     0.07500
C1167       C  0.63841600  0.81443634  0.86769322     0.01300
H1168       H  0.65405266  0.78728026  0.84264472     0.09000
H1169       H  0.63046154  0.82249575  0.87088629     0.08000
N1170       N  0.70117788  0.80057818  0.87441708    -0.35800
N1171       N  0.70809064  0.81122863  0.88276086    -0.28000
C1172       C  0.72167757  0.80769776  0.88255678    -0.03200
C1173       C  0.72335767  0.79416832  0.87360540     0.05400
C1174       C  0.71014174  0.79000677  0.86861366     0.03500
H1175       H  0.72968654  0.81440436  0.88883322     0.08600
H1176       H  0.70718907  0.77997794  0.86156358     0.07400
N1177       N  0.68734824  0.84633528  0.62640742    -0.27000
N1178       N  0.67370256  0.84668478  0.62521793    -0.34800
C1179       C  0.66936639  0.85824818  0.61311817     0.01400
C1180       C  0.68077653  0.86563809  0.60675563     0.07400
C1181       C  0.69200345  0.85780900  0.61550156    -0.05700
H1182       H  0.65871745  0.86080484  0.60842539     0.08100
H1183       H  0.70278214  0.85970880  0.61242360     0.09300
Cu1184     Cu  0.66141118  0.83131612  0.63925837     0.44200
Cu1185     Cu  0.69925707  0.82932328  0.63908602     0.42000
Cu1186     Cu  0.68046315  0.80091640  0.66229864     0.43900
N1187       N  0.65236628  0.81555859  0.65890208    -0.34400
N1188       N  0.65953295  0.80459922  0.66749317    -0.28600
C1189       C  0.65135373  0.79711161  0.68167648    -0.04700
C1190       C  0.63836704  0.80359756  0.68205319     0.07500
C1191       C  0.63933248  0.81525995  0.66734637     0.01300
H1192       H  0.65481832  0.78797099  0.69188652     0.09000
H1193       H  0.63142949  0.82337399  0.66426800     0.08000
N1194       N  0.70163460  0.79990676  0.65792859    -0.35800
N1195       N  0.70868030  0.81040126  0.64960800    -0.28000
C1196       C  0.72216489  0.80645243  0.64886082    -0.03200
C1197       C  0.72362364  0.79282418  0.65720004     0.05400
C1198       C  0.71038866  0.78902536  0.66277519     0.03500
H1199       H  0.73024880  0.81297788  0.64248119     0.08600
H1200       H  0.70729061  0.77905000  0.66963846     0.07400
N1201       N  0.60742165  0.80142701  0.71916700    -0.27000
N1202       N  0.61605184  0.79271144  0.73080327    -0.34800
C1203       C  0.62794633  0.79147813  0.71834550     0.01400
C1204       C  0.62688384  0.79997003  0.69804188     0.07400
C1205       C  0.61370269  0.80609419  0.69902615    -0.05700
H1206       H  0.63716465  0.78597502  0.72498937     0.08100
H1207       H  0.60934045  0.81403673  0.68696141     0.09300
Cu1208     Cu  0.61360222  0.78686359  0.76673050     0.44200
Cu1209     Cu  0.58844386  0.80805474  0.73362638     0.42000
Cu1210     Cu  0.58777468  0.80676172  0.79986140     0.43900
N1211       N  0.61549453  0.79183822  0.80327988    -0.34400
N1212       N  0.60663160  0.80025047  0.81511038    -0.28600
C1213       C  0.61271340  0.80483208  0.83567837    -0.04700
C1214       C  0.62600752  0.79893578  0.83672996     0.07500
C1215       C  0.62731288  0.79067065  0.81602823     0.01300
H1216       H  0.60817550  0.81263823  0.84793187     0.09000
H1217       H  0.63668399  0.78550331  0.80925599     0.08000
N1218       N  0.57056577  0.81192366  0.77841595    -0.35800
N1219       N  0.57081978  0.81252246  0.75427873    -0.28000
C1220       C  0.55803229  0.81593430  0.74604756    -0.03200
C1221       C  0.54930260  0.81752813  0.76595213     0.05400
C1222       C  0.55760948  0.81490253  0.78615112     0.03500
H1223       H  0.55528529  0.81699655  0.72696115     0.08600
H1224       H  0.55448193  0.81502445  0.80510688     0.07400
N1225       N  0.68804629  0.89458780  0.56632616    -0.27000
N1226       N  0.67772563  0.88875810  0.55483234    -0.34800
C1227       C  0.67309483  0.87831251  0.56841188     0.01400
C1228       C  0.68101036  0.87724968  0.58931002     0.07400
C1229       C  0.69048002  0.88768101  0.58744206    -0.05700
H1230       H  0.66544467  0.87112581  0.56236778     0.08100
H1231       H  0.69878413  0.88976207  0.60001429     0.09300
Cu1232     Cu  0.67320061  0.89189391  0.51839343     0.44200
Cu1233     Cu  0.69825312  0.91124771  0.55108640     0.42000
Cu1234     Cu  0.69704162  0.91129569  0.98454474     0.43900
N1235       N  0.67686635  0.88845351  0.98168449    -0.34400
N1236       N  0.68678678  0.89449537  0.96964648    -0.28600
C1237       C  0.68894113  0.88759932  0.94834933    -0.04700
C1238       C  0.67970832  0.87692844  0.94691876     0.07500
C1239       C  0.67220627  0.87784038  0.96828021     0.01300
H1240       H  0.69694845  0.88982915  0.93537162     0.09000
H1241       H  0.66488640  0.87045857  0.97469936     0.08000
N1242       N  0.70292863  0.92834254  0.50557717    -0.35800
N1243       N  0.70339182  0.92832150  0.52975018    -0.28000
C1244       C  0.70609361  0.94128744  0.53768583    -0.03200
C1245       C  0.70734526  0.94991972  0.51760825     0.05400
C1246       C  0.70519222  0.94132318  0.99765382     0.03500
H1247       H  0.70640366  0.94435775  0.55672124     0.08600
H1248       H  0.70478725  0.94440190  0.97867253     0.07400
N1249       N  0.34943231  0.86448673  0.87326663    -0.27000
N1250       N  0.35009693  0.87828219  0.87382453    -0.34800
C1251       C  0.36148907  0.88196169  0.86196308     0.01400
C1252       C  0.36846766  0.86996233  0.85391180     0.07400
C1253       C  0.36057929  0.85904718  0.86136993    -0.05700
H1254       H  0.36425534  0.89263763  0.85875812     0.08100
H1255       H  0.36229064  0.84807378  0.85697916     0.09300
Cu1256     Cu  0.33546579  0.89201561  0.88936834     0.44200
Cu1257     Cu  0.33245742  0.85379472  0.88530577     0.42000
Cu1258     Cu  0.30506364  0.87621828  0.91020656     0.43900
N1259       N  0.31986998  0.90318095  0.90772550    -0.34400
N1260       N  0.30874452  0.89712598  0.91566015    -0.28600
C1261       C  0.30118616  0.90633128  0.92914162    -0.04700
C1262       C  0.30782700  0.91884222  0.92972293     0.07500
C1263       C  0.31963894  0.91651497  0.91584488     0.01300
H1264       H  0.29190233  0.90385058  0.93885420     0.09000
H1265       H  0.32789813  0.92362929  0.91328629     0.08000
N1266       N  0.30318788  0.85506754  0.90391944    -0.35800
N1267       N  0.31320698  0.84674113  0.89507503    -0.28000
C1268       C  0.30849936  0.83376679  0.89259481    -0.03200
C1269       C  0.29487350  0.83399469  0.90021113     0.05400
C1270       C  0.29186771  0.84766488  0.90729434     0.03500
H1271       H  0.31447856  0.82492159  0.88528279     0.08600
H1272       H  0.28212371  0.85200000  0.91407128     0.07400
N1273       N  0.35028199  0.86612099  0.65979373    -0.27000
N1274       N  0.35095626  0.87991210  0.65946692    -0.34800
C1275       C  0.36218287  0.88357923  0.67208821     0.01400
C1276       C  0.36902604  0.87153743  0.68030760     0.07400
C1277       C  0.36122554  0.86066770  0.67217647    -0.05700
H1278       H  0.36495595  0.89424684  0.67557946     0.08100
H1279       H  0.36284686  0.84968927  0.67640857     0.09300
Cu1280     Cu  0.33638850  0.89335540  0.64286846     0.44200
Cu1281     Cu  0.33347781  0.85533686  0.64712600     0.42000
Cu1282     Cu  0.30574581  0.87687713  0.62211092     0.43900
N1283       N  0.32067774  0.90389837  0.62361613    -0.34400
N1284       N  0.30957021  0.89766911  0.61577446    -0.28600
C1285       C  0.30203083  0.90661128  0.60181714    -0.04700
C1286       C  0.30865234  0.91912126  0.60085231     0.07500
C1287       C  0.32042466  0.91707192  0.61497611     0.01300
H1288       H  0.29274247  0.90395804  0.59215308     0.09000
H1289       H  0.32862862  0.92427868  0.61746922     0.08000
N1290       N  0.30417987  0.85573556  0.62883729    -0.35800
N1291       N  0.31439606  0.84770550  0.63769871    -0.28000
C1292       C  0.31007737  0.83457525  0.63992619    -0.03200
C1293       C  0.29649824  0.83436611  0.63202380     0.05400
C1294       C  0.29311163  0.84797027  0.62515182     0.03500
H1295       H  0.31634493  0.82586600  0.64689418     0.08600
H1296       H  0.28332794  0.85198723  0.61802919     0.07400
N1297       N  0.39811520  0.86168506  0.81508180    -0.27000
N1298       N  0.39247143  0.87269642  0.80382453    -0.34800
C1299       C  0.38161535  0.87769992  0.81680985     0.01400
C1300       C  0.38018055  0.86930160  0.83697616     0.07400
C1301       C  0.39076940  0.85919565  0.83535596    -0.05700
H1302       H  0.37449455  0.88598066  0.81076600     0.08100
H1303       H  0.39269121  0.85043079  0.84747393     0.09300
Cu1304     Cu  0.39645814  0.87752863  0.76787130     0.44200
Cu1305     Cu  0.41484844  0.85028251  0.80059958     0.42000
Cu1306     Cu  0.41476826  0.85053151  0.73444296     0.43900
N1307       N  0.39265529  0.87333087  0.73149022    -0.34400
N1308       N  0.39819603  0.86232778  0.71990267    -0.28600
C1309       C  0.39099171  0.86024514  0.69920045    -0.04700
C1310       C  0.38064011  0.87062503  0.69760392     0.07500
C1311       C  0.38204183  0.87874331  0.71830519     0.01300
H1312       H  0.39283146  0.85156510  0.68672097     0.09000
H1313       H  0.37501887  0.88708982  0.72452282     0.08000
N1314       N  0.43164837  0.84357823  0.75541286    -0.35800
N1315       N  0.43162814  0.84349134  0.77958085    -0.28000
C1316       C  0.44438287  0.83983807  0.78764054    -0.03200
C1317       C  0.45288489  0.83756045  0.76761536     0.05400
C1318       C  0.44445142  0.83998589  0.74748403     0.03500
H1319       H  0.44736086  0.83948571  0.80669301     0.08600
H1320       H  0.44749345  0.83972680  0.72848334     0.07400
N1321       N  0.30652511  0.95049576  0.56335180    -0.27000
N1322       N  0.29809223  0.94230756  0.55153090    -0.34800
C1323       C  0.29688303  0.93040249  0.56405121     0.01400
C1324       C  0.30510067  0.93096542  0.58463944     0.07400
C1325       C  0.31105957  0.94388235  0.58371186    -0.05700
H1326       H  0.29157557  0.92142558  0.55731029     0.08100
H1327       H  0.31873432  0.94780968  0.59606751     0.09300
Cu1328     Cu  0.29256556  0.94514506  0.51545937     0.44200
Cu1329     Cu  0.31248306  0.96936611  0.54875693     0.42000
Cu1330     Cu  0.31201947  0.96932303  0.98188062     0.43900
N1331       N  0.29756626  0.94233556  0.97902920    -0.34400
N1332       N  0.30586043  0.95049788  0.96705685    -0.28600
C1333       C  0.31023186  0.94380327  0.94657042    -0.04700
C1334       C  0.30431222  0.93085536  0.94575757     0.07500
C1335       C  0.29628379  0.93037483  0.96650516     0.01300
H1336       H  0.31782720  0.94766666  0.93412380     0.09000
H1337       H  0.29113482  0.92138972  0.97340800     0.08000
N1338       N  0.31487817  0.98704477  0.50335986    -0.35800
N1339       N  0.31505207  0.98708788  0.52754408    -0.28000
C1340       C  0.31611647  0.00033840  0.53554213    -0.03200
C1341       C  0.31660279  0.00905186  0.51546363     0.05400
C1342       C  0.31583720  0.00024091  0.99529935     0.03500
H1343       H  0.31610064  0.00341602  0.55458614     0.08600
H1344       H  0.31553530  0.00323473  0.97627117     0.07400
N1345       N  0.33362624  0.21435910  0.62263373    -0.27000
N1346       N  0.34727268  0.21384540  0.62240571    -0.34800
C1347       C  0.35177091  0.20213858  0.61073703     0.01400
C1348       C  0.34044812  0.19479775  0.60357612     0.07400
C1349       C  0.32909114  0.20284045  0.61139566    -0.05700
H1350       H  0.36248712  0.19949084  0.60674022     0.08100
H1351       H  0.31837400  0.20106212  0.60736609     0.09300
Cu1352     Cu  0.35923157  0.22946307  0.63657160     0.44200
Cu1353     Cu  0.32207234  0.23195416  0.63426463     0.42000
Cu1354     Cu  0.34140505  0.26090632  0.65833866     0.43900
N1355       N  0.36878433  0.24496036  0.65618232    -0.34400
N1356       N  0.36215043  0.25630760  0.66467498    -0.28600
C1357       C  0.37063963  0.26324161  0.67943129    -0.04700
C1358       C  0.38323167  0.25591917  0.68022854     0.07500
C1359       C  0.38171911  0.24442425  0.66517727     0.01300
H1360       H  0.36761316  0.27250748  0.68983739     0.09000
H1361       H  0.38910172  0.23577894  0.66240944     0.08000
N1362       N  0.32056795  0.26237276  0.64994241    -0.35800
N1363       N  0.31348148  0.25182101  0.64160639    -0.28000
C1364       C  0.30043252  0.25642267  0.63709774    -0.03200
C1365       C  0.29928755  0.27053621  0.64275719     0.05400
C1366       C  0.31223674  0.27394838  0.65090855     0.03500
H1367       H  0.29250368  0.25003289  0.62955240     0.08600
H1368       H  0.31546719  0.28413741  0.65670217     0.07400
N1369       N  0.33148499  0.21166826  0.90695879    -0.27000
N1370       N  0.34511078  0.21086341  0.90554924    -0.34800
C1371       C  0.34984736  0.19908959  0.91648991     0.01400
C1372       C  0.33871705  0.19198029  0.92488348     0.07400
C1373       C  0.32720183  0.20023619  0.91857325    -0.05700
H1374       H  0.36065587  0.19629602  0.91931971     0.08100
H1375       H  0.31664552  0.19868084  0.92395035     0.09300
Cu1376     Cu  0.35707882  0.22611752  0.89072875     0.44200
Cu1377     Cu  0.31981303  0.22946858  0.89675370     0.42000
Cu1378     Cu  0.33978322  0.25762948  0.87082145     0.43900
N1379       N  0.36709197  0.24161020  0.87235631    -0.34400
N1380       N  0.36058984  0.25313027  0.86448792    -0.28600
C1381       C  0.36933316  0.26039858  0.85096311    -0.04700
C1382       C  0.38197310  0.25311941  0.85035566     0.07500
C1383       C  0.38019579  0.24127308  0.86420848     0.01300
H1384       H  0.36650667  0.26996074  0.84139396     0.09000
H1385       H  0.38758100  0.23263022  0.86687960     0.08000
N1386       N  0.31892580  0.25953268  0.87921000    -0.35800
N1387       N  0.31165212  0.24933963  0.88817504    -0.28000
C1388       C  0.29850594  0.25409196  0.89112768    -0.03200
C1389       C  0.29747355  0.26791499  0.88373653     0.05400
C1390       C  0.31061573  0.27102016  0.87634919     0.03500
H1391       H  0.29032463  0.24792852  0.89822473     0.08600
H1392       H  0.31390843  0.28084758  0.86915800     0.07400
N1393       N  0.33346840  0.16321538  0.96659140    -0.27000
N1394       N  0.34331111  0.16992698  0.97786484    -0.34800
C1395       C  0.34727600  0.18043529  0.96371419     0.01400
C1396       C  0.33937927  0.18057395  0.94272187     0.07400
C1397       C  0.33066938  0.16954558  0.94508686    -0.05700
H1398       H  0.35431819  0.18831012  0.96944242     0.08100
H1399       H  0.32251630  0.16673924  0.93269095     0.09300
Cu1400     Cu  0.34756953  0.16792638  0.51466295     0.44200
Cu1401     Cu  0.32389625  0.14656404  0.98275816     0.42000
Cu1402     Cu  0.32498569  0.14736669  0.54966435     0.43900
N1403       N  0.34370769  0.17153666  0.55131863    -0.34400
N1404       N  0.33436383  0.16492162  0.56386435    -0.28600
C1405       C  0.33203381  0.17182209  0.58512721    -0.04700
C1406       C  0.34053076  0.18312815  0.58597663     0.07500
C1407       C  0.34778502  0.18257300  0.56432052     0.01300
H1408       H  0.32443331  0.16909660  0.59854128     0.09000
H1409       H  0.35459997  0.19034416  0.55755451     0.08000
N1410       N  0.31973362  0.12994056  0.52899426    -0.35800
N1411       N  0.31919408  0.12973051  0.00470019    -0.28000
C1412       C  0.31714468  0.11658139  0.99705031    -0.03200
C1413       C  0.31650198  0.10804144  0.51742507     0.05400
C1414       C  0.31805145  0.11689047  0.53728539     0.03500
H1415       H  0.31708535  0.11335133  0.97808433     0.08600
H1416       H  0.31871443  0.11393904  0.55631431     0.07400
N1417       N  0.41340456  0.25372559  0.81397911    -0.27000
N1418       N  0.40540042  0.26315347  0.80264493    -0.34800
C1419       C  0.39349357  0.26500848  0.81491597     0.01400
C1420       C  0.39385049  0.25621034  0.83482613     0.07400
C1421       C  0.40666193  0.24921965  0.83377896    -0.05700
H1422       H  0.38467008  0.27118287  0.80833022     0.08100
H1423       H  0.41042277  0.24085037  0.84555765     0.09300
Cu1424     Cu  0.40836140  0.26923318  0.76704692     0.44200
Cu1425     Cu  0.43216862  0.24624699  0.79936939     0.42000
Cu1426     Cu  0.43228780  0.24697016  0.73332433     0.43900
N1427       N  0.40575223  0.26423986  0.73070151    -0.34400
N1428       N  0.41384988  0.25509248  0.71880053    -0.28600
C1429       C  0.40744183  0.25128638  0.69810119    -0.04700
C1430       C  0.39474472  0.25844236  0.69700590     0.07500
C1431       C  0.39407757  0.26660644  0.71788105     0.01300
H1432       H  0.41135337  0.24327147  0.68562069     0.09000
H1433       H  0.38519629  0.27268184  0.72454043     0.08000
N1434       N  0.44969688  0.24181721  0.75414062    -0.35800
N1435       N  0.44970450  0.24164081  0.77830707    -0.28000
C1436       C  0.46269522  0.23893426  0.78622080    -0.03200
C1437       C  0.47127060  0.23734083  0.76608647     0.05400
C1438       C  0.46265443  0.23919458  0.74606284     0.03500
H1439       H  0.46570785  0.23849653  0.80524993     0.08600
H1440       H  0.46561455  0.23907859  0.72701889     0.07400
N1441       N  0.18114284  0.38233695  0.66019552    -0.27000
N1442       N  0.16755474  0.38177011  0.66181823    -0.34800
C1443       C  0.16251134  0.39337526  0.67309318     0.01400
C1444       C  0.17335913  0.40176564  0.67851752     0.07400
C1445       C  0.18503838  0.39449515  0.67007598    -0.05700
H1446       H  0.15174129  0.39540768  0.67750473     0.08100
H1447       H  0.19563340  0.39740271  0.67232929     0.09300
Cu1448     Cu  0.15598478  0.36552512  0.64899048     0.44200
Cu1449     Cu  0.19396481  0.36580965  0.64775456     0.42000
Cu1450     Cu  0.17545004  0.33591732  0.62699545     0.43900
N1451       N  0.14705496  0.34943937  0.62998897    -0.34400
N1452       N  0.15445296  0.33860803  0.62143977    -0.28600
C1453       C  0.14660741  0.33119923  0.60631912    -0.04700
C1454       C  0.13360091  0.33765503  0.60530252     0.07500
C1455       C  0.13420252  0.34915197  0.62068194     0.01300
H1456       H  0.15041786  0.32241055  0.59540626     0.09000
H1457       H  0.12636180  0.35742487  0.62298249     0.08000
N1458       N  0.19659968  0.33572543  0.63143221    -0.35800
N1459       N  0.20355986  0.34663870  0.63849918    -0.28000
C1460       C  0.21708119  0.34282428  0.63960701    -0.03200
C1461       C  0.21860876  0.32884842  0.63294641     0.05400
C1462       C  0.20541441  0.32472526  0.62789111     0.03500
H1463       H  0.22512621  0.34963745  0.64533083     0.08600
H1464       H  0.20236814  0.31443951  0.62228786     0.07400
N1465       N  0.18145827  0.38281014  0.86073286    -0.27000
N1466       N  0.16781065  0.38306397  0.86125648    -0.34800
C1467       C  0.16287622  0.39478284  0.85034014     0.01400
C1468       C  0.17391159  0.40242139  0.84303220     0.07400
C1469       C  0.18555668  0.39454650  0.84987739    -0.05700
H1470       H  0.15203343  0.39744605  0.84759420     0.08100
H1471       H  0.19617492  0.39676345  0.84595593     0.09300
Cu1472     Cu  0.15629921  0.36770860  0.87702245     0.44200
Cu1473     Cu  0.19370880  0.36566087  0.87191274     0.42000
Cu1474     Cu  0.17541625  0.33717883  0.89840753     0.43900
N1475       N  0.14760916  0.35248194  0.89818731    -0.34400
N1476       N  0.15478434  0.34142332  0.90635406    -0.28600
C1477       C  0.14697113  0.33448954  0.92204915    -0.04700
C1478       C  0.13424836  0.34148826  0.92385719     0.07500
C1479       C  0.13496707  0.35282707  0.90838898     0.01300
H1480       H  0.15057055  0.32545010  0.93240041     0.09000
H1481       H  0.12729141  0.36125238  0.90613375     0.08000
N1482       N  0.19618111  0.33581481  0.88945389    -0.35800
N1483       N  0.20296093  0.34627609  0.88024846    -0.28000
C1484       C  0.21616811  0.34195641  0.87640258    -0.03200
C1485       C  0.21773181  0.32810467  0.88343019     0.05400
C1486       C  0.20485706  0.32456327  0.89162220     0.03500
H1487       H  0.22397063  0.34836363  0.86865910     0.08600
H1488       H  0.20195797  0.31455205  0.89863026     0.07400
N1489       N  0.10486402  0.34097896  0.96524337    -0.27000
N1490       N  0.11413619  0.33307123  0.97705545    -0.34800
C1491       C  0.12556070  0.33146471  0.96341204     0.01400
C1492       C  0.12352858  0.33884660  0.94203245     0.07400
C1493       C  0.11026959  0.34477801  0.94370668    -0.05700
H1494       H  0.13506015  0.32628535  0.96956014     0.08100
H1495       H  0.10517308  0.35178460  0.93077970     0.09300
Cu1496     Cu  0.11265530  0.32790500  0.51348743     0.44200
Cu1497     Cu  0.08590101  0.34669250  0.98078268     0.42000
Cu1498     Cu  0.08568024  0.34442929  0.54805342     0.43900
N1499       N  0.11384233  0.33069024  0.55080138    -0.34400
N1500       N  0.10437817  0.33784227  0.56355063    -0.28600
C1501       C  0.10957254  0.34070786  0.58579337    -0.04700
C1502       C  0.12291423  0.33496982  0.58697170     0.07500
C1503       C  0.12520839  0.32862851  0.56454115     0.01300
H1504       H  0.10436450  0.34719976  0.59944828     0.09000
H1505       H  0.13490067  0.32415537  0.55777390     0.08000
N1506       N  0.06815896  0.34738611  0.52645260    -0.35800
N1507       N  0.06818884  0.34818958  0.50231123    -0.28000
C1508       C  0.05507143  0.34880347  0.99415107    -0.03200
C1509       C  0.04635875  0.34825171  0.51419704     0.05400
C1510       C  0.05502719  0.34742385  0.53429544     0.03500
H1511       H  0.05212279  0.34896432  0.97508244     0.08600
H1512       H  0.05205625  0.34632371  0.55320310     0.07400
N1513       N  0.17880146  0.43393831  0.80745843    -0.27000
N1514       N  0.16810898  0.42860835  0.79627345    -0.34800
C1515       C  0.16433261  0.41718098  0.80824658     0.01400
C1516       C  0.17321063  0.41498508  0.82767963     0.07400
C1517       C  0.18231827  0.42577095  0.82669376    -0.05700
H1518       H  0.15666450  0.41013948  0.80173557     0.08100
H1519       H  0.19115503  0.42722203  0.83840103     0.09300
Cu1520     Cu  0.16264324  0.43332554  0.76078547     0.44200
Cu1521     Cu  0.18842902  0.45129042  0.79353276     0.42000
Cu1522     Cu  0.18804347  0.45091990  0.72733588     0.43900
N1523       N  0.16777757  0.42825641  0.72523284    -0.34400
N1524       N  0.17830825  0.43356215  0.71372910    -0.28600
C1525       C  0.18167632  0.42530792  0.69443131    -0.04700
C1526       C  0.17265782  0.41444876  0.69375711     0.07500
C1527       C  0.16396785  0.41670928  0.71342392     0.01300
H1528       H  0.19039325  0.42673315  0.68252716     0.09000
H1529       H  0.15643239  0.40965200  0.72018316     0.08000
N1530       N  0.19327233  0.46820407  0.74804979    -0.35800
N1531       N  0.19339392  0.46840110  0.77222388    -0.28000
C1532       C  0.19570612  0.48149733  0.77992764    -0.03200
C1533       C  0.19706869  0.48994704  0.75965110     0.05400
C1534       C  0.19551157  0.48113523  0.73977652     0.03500
H1535       H  0.19574438  0.48473535  0.79888915     0.08600
H1536       H  0.19531801  0.48403108  0.72069795     0.07400
N1537       N  0.83856490  0.32635683  0.60634239    -0.27000
N1538       N  0.84290818  0.33889404  0.61190873    -0.34800
C1539       C  0.85604494  0.33972908  0.60408587     0.01400
C1540       C  0.85996931  0.32710929  0.59300206     0.07400
C1541       C  0.84862829  0.31893961  0.59482388    -0.05700
H1542       H  0.86201805  0.34901300  0.60528965     0.08100
H1543       H  0.84755787  0.30850872  0.58751517     0.09300
Cu1544     Cu  0.82997819  0.35410784  0.62858947     0.44200
Cu1545     Cu  0.81893160  0.31990258  0.61250528     0.42000
Cu1546     Cu  0.79434640  0.34296844  0.64084930     0.43900
N1547       N  0.81491525  0.36595385  0.64770301    -0.34400
N1548       N  0.80237882  0.36168134  0.65247291    -0.28600
C1549       C  0.79596687  0.37091396  0.66761878    -0.04700
C1550       C  0.80473965  0.38159501  0.67247764     0.07500
C1551       C  0.81664936  0.37818039  0.65948184     0.01300
H1552       H  0.78583486  0.36963425  0.67533229     0.09000
H1553       H  0.82619497  0.38364865  0.65991744     0.08000
N1554       N  0.78960780  0.32301257  0.62939385    -0.35800
N1555       N  0.79895322  0.31458732  0.61885446    -0.28000
C1556       C  0.79349168  0.30220649  0.61424667    -0.03200
C1557       C  0.78001104  0.30277118  0.62237506     0.05400
C1558       C  0.77782990  0.31614606  0.63185954     0.03500
H1559       H  0.79908610  0.29335681  0.60609440     0.08600
H1560       H  0.76854333  0.32044887  0.64043267     0.07400
N1561       N  0.83679847  0.32641331  0.92169447    -0.27000
N1562       N  0.84164082  0.33838356  0.91429048    -0.34800
C1563       C  0.85481257  0.33913265  0.92211320     0.01400
C1564       C  0.85824874  0.32706226  0.93511753     0.07400
C1565       C  0.84656724  0.31930261  0.93445412    -0.05700
H1566       H  0.86123234  0.34795566  0.91921986     0.08100
H1567       H  0.84516224  0.30927279  0.94293643     0.09300
Cu1568     Cu  0.82937314  0.35292881  0.89469364     0.44200
Cu1569     Cu  0.81711759  0.32009464  0.91491849     0.42000
Cu1570     Cu  0.79421107  0.34107375  0.87900127     0.43900
N1571       N  0.81463565  0.36434337  0.87409563    -0.34400
N1572       N  0.80237689  0.35974992  0.86799554    -0.28600
C1573       C  0.79604551  0.36898571  0.85288904    -0.04700
C1574       C  0.80454972  0.38002395  0.84946875     0.07500
C1575       C  0.81624260  0.37679963  0.86323211     0.01300
H1576       H  0.78606687  0.36758862  0.84454272     0.09000
H1577       H  0.82552368  0.38268104  0.86421510     0.08000
N1578       N  0.78873215  0.32197230  0.89296887    -0.35800
N1579       N  0.79745788  0.31436243  0.90642900    -0.28000
C1580       C  0.79173979  0.30232264  0.91226208    -0.03200
C1581       C  0.77873586  0.30224920  0.90194831     0.05400
C1582       C  0.77708367  0.31492138  0.88988039     0.03500
H1583       H  0.79686849  0.29409337  0.92277042     0.08600
H1584       H  0.76830431  0.31855279  0.87908413     0.07400
N1585       N  0.80432731  0.41088989  0.81047392    -0.27000
N1586       N  0.79610396  0.40267800  0.79821373    -0.34800
C1587       C  0.79446906  0.39090272  0.81090111     0.01400
C1588       C  0.80221387  0.39154575  0.83203262     0.07400
C1589       C  0.80837089  0.40436581  0.83124616    -0.05700
H1590       H  0.78903466  0.38200177  0.80417833     0.08100
H1591       H  0.81558875  0.40842538  0.84432642     0.09300
Cu1592     Cu  0.79111430  0.40545850  0.76185986     0.44200
Cu1593     Cu  0.81010706  0.43000182  0.79643706     0.42000
Cu1594     Cu  0.81072674  0.43024453  0.72985346     0.43900
N1595       N  0.79647571  0.40316081  0.72556008    -0.34400
N1596       N  0.80489966  0.41147841  0.71422469    -0.28600
C1597       C  0.80893767  0.40535970  0.69300779    -0.04700
C1598       C  0.80255519  0.39269943  0.69094108     0.07500
C1599       C  0.79471250  0.39170962  0.71182752     0.01300
H1600       H  0.81624597  0.40960363  0.68042211     0.09000
H1601       H  0.78905692  0.38278891  0.71759382     0.08000
N1602       N  0.81269735  0.44804094  0.75150906    -0.35800
N1603       N  0.81247822  0.44797799  0.77568764    -0.28000
C1604       C  0.81308962  0.46123315  0.78391849    -0.03200
C1605       C  0.81368229  0.47006733  0.76399929     0.05400
C1606       C  0.81343060  0.46132558  0.74377513     0.03500
H1607       H  0.81276181  0.46423069  0.80299943     0.08600
H1608       H  0.81345733  0.46438861  0.72478348     0.07400
N1609       N  0.89246943  0.32464099  0.55948347    -0.27000
N1610       N  0.88527563  0.31504302  0.54835713    -0.34800
C1611       C  0.87313277  0.31398291  0.55968755     0.01400
C1612       C  0.87245457  0.32351993  0.57868827     0.07400
C1613       C  0.88491188  0.33013161  0.57814364    -0.05700
H1614       H  0.86479975  0.30786011  0.55285892     0.08100
H1615       H  0.88791814  0.33878404  0.58950203     0.09300
Cu1616     Cu  0.88910570  0.30823276  0.51321113     0.44200
Cu1617     Cu  0.91128324  0.33061413  0.54558572     0.42000
Cu1618     Cu  0.91068393  0.33013766  0.97930843     0.43900
N1619       N  0.88435843  0.31496742  0.97847945    -0.34400
N1620       N  0.89145316  0.32432090  0.96674724    -0.28600
C1621       C  0.88354185  0.32979032  0.94856443    -0.04700
C1622       C  0.87092802  0.32346327  0.94899339     0.07500
C1623       C  0.87189445  0.31408324  0.96806227     0.01300
H1624       H  0.88645660  0.33824311  0.93685035     0.09000
H1625       H  0.86364041  0.30812719  0.97546489     0.08000
N1626       N  0.92851328  0.33286388  0.99980900    -0.35800
N1627       N  0.92868599  0.33302264  0.52401238    -0.28000
C1628       C  0.94173452  0.33457933  0.53166798    -0.03200
C1629       C  0.95013522  0.33556682  0.51137594     0.05400
C1630       C  0.94141768  0.33440547  0.99147796     0.03500
H1631       H  0.94483617  0.33498645  0.55064351     0.08600
H1632       H  0.94419955  0.33463485  0.97236064     0.07400
N1633       N  0.17910356  0.73220691  0.60910381    -0.27000
N1634       N  0.17576344  0.71939450  0.61495174    -0.34800
C1635       C  0.16300682  0.71713356  0.60644177     0.01400
C1636       C  0.15821659  0.72906754  0.59446776     0.07400
C1637       C  0.16867421  0.73838457  0.59649453    -0.05700
H1638       H  0.15795815  0.70728582  0.60766305     0.08100
H1639       H  0.16891471  0.74871656  0.58860602     0.09300
Cu1640     Cu  0.18923948  0.70530339  0.63227998     0.44200
Cu1641     Cu  0.19796490  0.74053808  0.61678550     0.42000
Cu1642     Cu  0.22307175  0.71836554  0.64781698     0.43900
N1643       N  0.20413127  0.69397503  0.65189171    -0.34400
N1644       N  0.21619915  0.69887629  0.65824619    -0.28600
C1645       C  0.22273453  0.68955648  0.67302821    -0.04700
C1646       C  0.21447366  0.67820971  0.67584189     0.07500
C1647       C  0.20277981  0.68134292  0.66213243     0.01300
H1648       H  0.23263454  0.69108604  0.68157138     0.09000
H1649       H  0.19365179  0.67524988  0.66072798     0.08000
N1650       N  0.22694161  0.73865329  0.63660255    -0.35800
N1651       N  0.21754530  0.74675007  0.62546390    -0.28000
C1652       C  0.22279359  0.75926855  0.62107606    -0.03200
C1653       C  0.23618858  0.75910657  0.62981089     0.05400
C1654       C  0.23850139  0.74585425  0.63953104     0.03500
H1655       H  0.21720771  0.76786241  0.61223716     0.08600
H1656       H  0.24781269  0.74178929  0.64833290     0.07400
N1657       N  0.21664990  0.69770238  0.86559878    -0.27000
N1658       N  0.20430649  0.69304777  0.87059693    -0.34800
C1659       C  0.20293661  0.68061748  0.85942928     0.01400
C1660       C  0.21489920  0.67737674  0.84656094     0.07400
C1661       C  0.22335450  0.68843822  0.85081208    -0.05700
H1662       H  0.19362596  0.67476315  0.85958043     0.08100
H1663       H  0.23347433  0.68985804  0.84314806     0.09300
Cu1664     Cu  0.18906511  0.70438643  0.88968847     0.44200
Cu1665     Cu  0.22353241  0.71694938  0.87720952     0.42000
Cu1666     Cu  0.19732291  0.73956945  0.90506831     0.43900
N1667       N  0.17535181  0.71834111  0.90719084    -0.34400
N1668       N  0.17858051  0.73124588  0.91285450    -0.28600
C1669       C  0.16821215  0.73744629  0.92559654    -0.04700
C1670       C  0.15787824  0.72804559  0.92797214     0.07500
C1671       C  0.16269335  0.71602617  0.91602284     0.01300
H1672       H  0.16843432  0.74785357  0.93338191     0.09000
H1673       H  0.15773810  0.70611106  0.91503882     0.08000
N1674       N  0.21692100  0.74578512  0.89730813    -0.35800
N1675       N  0.22670656  0.73750404  0.88760520    -0.28000
C1676       C  0.23820399  0.74478313  0.88512339    -0.03200
C1677       C  0.23543152  0.75827608  0.89361081     0.05400
C1678       C  0.22185171  0.75852085  0.90117658     0.03500
H1679       H  0.24779326  0.74059678  0.87746773     0.08600
H1680       H  0.21594437  0.76727148  0.90898634     0.07400
N1681       N  0.21430899  0.64664680  0.71295930    -0.27000
N1682       N  0.22348153  0.65402265  0.72472647    -0.34800
C1683       C  0.22541489  0.66593119  0.71256080     0.01400
C1684       C  0.21694479  0.66622168  0.69226693     0.07400
C1685       C  0.21002355  0.65382764  0.69302271    -0.05700
H1686       H  0.23154631  0.67434160  0.71926401     0.08100
H1687       H  0.20202286  0.65058208  0.68067198     0.09300
Cu1688     Cu  0.22932584  0.65040014  0.76043065     0.44200
Cu1689     Cu  0.20716178  0.62799087  0.72672189     0.42000
Cu1690     Cu  0.20692357  0.62819069  0.79269157     0.43900
N1691       N  0.22372168  0.65380153  0.79633735    -0.34400
N1692       N  0.21441192  0.64644813  0.80756121    -0.28600
C1693       C  0.21024398  0.65338654  0.82788385    -0.04700
C1694       C  0.21738285  0.66560928  0.82951002     0.07500
C1695       C  0.22587352  0.66548394  0.80928598     0.01300
H1696       H  0.20215322  0.65011988  0.83989972     0.09000
H1697       H  0.23212121  0.67389521  0.80316032     0.08000
N1698       N  0.20277421  0.61064112  0.77174252    -0.35800
N1699       N  0.20293211  0.61049590  0.74757601    -0.28000
C1700       C  0.20110303  0.59733919  0.73966917    -0.03200
C1701       C  0.19976126  0.58879255  0.75982093     0.05400
C1702       C  0.20082350  0.59761172  0.77982480     0.03500
H1703       H  0.20128259  0.59416256  0.72067491     0.08600
H1704       H  0.20078486  0.59469018  0.79888848     0.07400
N1705       N  0.12666091  0.72563093  0.96418091    -0.27000
N1706       N  0.13291901  0.73578417  0.97563508    -0.34800
C1707       C  0.14442064  0.73872056  0.96346387     0.01400
C1708       C  0.14561536  0.72986356  0.94353635     0.07400
C1709       C  0.13416940  0.72168343  0.94444881    -0.05700
H1710       H  0.15209734  0.74570724  0.97012611     0.08100
H1711       H  0.13188954  0.71301669  0.93253402     0.09300
Cu1712     Cu  0.12878948  0.74151758  0.51131873     0.44200
Cu1713     Cu  0.10922962  0.71687486  0.97852327     0.42000
Cu1714     Cu  0.10930641  0.71728335  0.54488959     0.43900
N1715       N  0.13298143  0.73627974  0.54706191    -0.34400
N1716       N  0.12677344  0.72628757  0.55881434    -0.28600
C1717       C  0.13438021  0.72260295  0.57855427    -0.04700
C1718       C  0.14583757  0.73078186  0.57914321     0.07500
C1719       C  0.14455229  0.73936153  0.55903333     0.01300
H1720       H  0.13217151  0.71408186  0.59066352     0.09000
H1721       H  0.15221524  0.74622238  0.55210384     0.08000
N1722       N  0.09223431  0.71270354  0.52384223    -0.35800
N1723       N  0.09216334  0.71265954  0.49967190    -0.28000
C1724       C  0.07923107  0.71082192  0.99180258    -0.03200
C1725       C  0.07071849  0.70980721  0.51187764     0.05400
C1726       C  0.07933782  0.71093473  0.53190783     0.03500
H1727       H  0.07614984  0.71093597  0.97279847     0.08600
H1728       H  0.07636887  0.71116085  0.55094857     0.07400
N1729       N  0.86377237  0.71733917  0.90604936    -0.27000
N1730       N  0.87057035  0.70570892  0.89925725    -0.34800
C1731       C  0.88324448  0.70543112  0.90939375     0.01400
C1732       C  0.88437414  0.71740171  0.92341660     0.07400
C1733       C  0.87184981  0.72468847  0.92088679    -0.05700
H1734       H  0.89068871  0.69672753  0.90802436     0.08100
H1735       H  0.86862405  0.73434690  0.92996114     0.09300
Cu1736     Cu  0.86147120  0.68986573  0.87981553     0.44200
Cu1737     Cu  0.84346446  0.72224646  0.89661007     0.42000
Cu1738     Cu  0.82445171  0.69419233  0.87007584     0.43900
N1739       N  0.84945750  0.67457346  0.86477622    -0.34400
N1740       N  0.83587825  0.67578085  0.86244180    -0.28600
C1741       C  0.83138112  0.66409896  0.85172746    -0.04700
C1742       C  0.84269529  0.65524559  0.84688200     0.07500
C1743       C  0.85396823  0.66225553  0.85521297     0.01300
H1744       H  0.82083004  0.66265634  0.84609209     0.09000
H1745       H  0.86471824  0.65889430  0.85356618     0.08000
N1746       N  0.81618997  0.71444138  0.87520640    -0.35800
N1747       N  0.82324086  0.72470155  0.88468339    -0.28000
C1748       C  0.81527718  0.73654737  0.88475411    -0.03200
C1749       C  0.80257894  0.73363148  0.87484585     0.05400
C1750       C  0.80351214  0.71950915  0.86901546     0.03500
H1751       H  0.81853471  0.74652751  0.89153985     0.08600
H1752       H  0.79561181  0.71337348  0.86071943     0.07400
N1753       N  0.86359200  0.71475065  0.61587106    -0.27000
N1754       N  0.87025726  0.70299880  0.62225063    -0.34800
C1755       C  0.88294809  0.70264965  0.61220277     0.01400
C1756       C  0.88420719  0.71470561  0.59865015     0.07400
C1757       C  0.87175917  0.72210828  0.60142688    -0.05700
H1758       H  0.89030939  0.69386639  0.61330106     0.08100
H1759       H  0.86863084  0.73186520  0.59274002     0.09300
Cu1760     Cu  0.86082964  0.68726963  0.64117195     0.44200
Cu1761     Cu  0.84329489  0.71988900  0.62519567     0.42000
Cu1762     Cu  0.82372912  0.69263292  0.65149587     0.43900
N1763       N  0.84841690  0.67261466  0.65686135    -0.34400
N1764       N  0.83487481  0.67421185  0.65942581    -0.28600
C1765       C  0.83018043  0.66295824  0.67094208    -0.04700
C1766       C  0.84132427  0.65398217  0.67609384     0.07500
C1767       C  0.85270444  0.66045348  0.66707458     0.01300
H1768       H  0.81964711  0.66196132  0.67696492     0.09000
H1769       H  0.86339418  0.65688439  0.66877880     0.08000
N1770       N  0.81586592  0.71294464  0.64657289    -0.35800
N1771       N  0.82309891  0.72296330  0.63701197    -0.28000
C1772       C  0.81540013  0.73498379  0.63712545    -0.03200
C1773       C  0.80270945  0.73241789  0.64731717     0.05400
C1774       C  0.80336501  0.71833026  0.65308421     0.03500
H1775       H  0.81885665  0.74486936  0.63046334     0.08600
H1776       H  0.79542544  0.71243077  0.66162470     0.07400
N1777       N  0.83480643  0.62442533  0.71519167    -0.27000
N1778       N  0.84572808  0.62958694  0.72592992    -0.34800
C1779       C  0.85017189  0.64023491  0.71260416     0.01400
C1780       C  0.84151454  0.64203274  0.69274692     0.07400
C1781       C  0.83181399  0.63190348  0.69494399    -0.05700
H1782       H  0.85820825  0.64707405  0.71829302     0.08100
H1783       H  0.82297134  0.63042107  0.68326378     0.09300
Cu1784     Cu  0.85116587  0.62554735  0.76176980     0.44200
Cu1785     Cu  0.82438708  0.60797690  0.72999790     0.42000
Cu1786     Cu  0.82614832  0.60761111  0.79582455     0.43900
N1787       N  0.84687913  0.62989383  0.79800977    -0.34400
N1788       N  0.83649836  0.62448908  0.80980377    -0.28600
C1789       C  0.83375254  0.63224667  0.82996814    -0.04700
C1790       C  0.84306233  0.64283282  0.83099140     0.07500
C1791       C  0.85123675  0.64098305  0.81053927     0.01300
H1792       H  0.82523926  0.63070435  0.84227420     0.09000
H1793       H  0.85874304  0.64809322  0.80385226     0.08000
N1794       N  0.82072285  0.59048027  0.77490698    -0.35800
N1795       N  0.82000169  0.59064062  0.75078069    -0.28000
C1796       C  0.81785492  0.57761654  0.74260641    -0.03200
C1797       C  0.81722955  0.56881865  0.76254192     0.05400
C1798       C  0.81905435  0.57734636  0.78271355     0.03500
H1799       H  0.81745529  0.57467490  0.72351521     0.08600
H1800       H  0.81977788  0.57415857  0.80161596     0.07400
N1801       N  0.91436999  0.71691310  0.55927998    -0.27000
N1802       N  0.90523222  0.72513812  0.54777305    -0.34800
C1803       C  0.89352029  0.72610461  0.56076973     0.01400
C1804       C  0.89521659  0.71797244  0.58138107     0.07400
C1805       C  0.90856904  0.71225078  0.57992466    -0.05700
H1806       H  0.88406657  0.73134913  0.55455153     0.08100
H1807       H  0.91348619  0.70483510  0.59236510     0.09300
Cu1808     Cu  0.90716689  0.73121546  0.51193253     0.44200
Cu1809     Cu  0.93369668  0.71177609  0.54434767     0.42000
Cu1810     Cu  0.93369501  0.71323458  0.97777747     0.43900
N1811       N  0.90537792  0.72685028  0.97520589    -0.34400
N1812       N  0.91452384  0.71896797  0.96298344    -0.28600
C1813       C  0.90874658  0.71484654  0.94185314    -0.04700
C1814       C  0.89539792  0.72058114  0.94080680     0.07500
C1815       C  0.89367478  0.72817748  0.96215578     0.01300
H1816       H  0.91363024  0.70766160  0.92888241     0.09000
H1817       H  0.88416699  0.73309707  0.96886992     0.08000
N1818       N  0.95143495  0.71017234  0.99887319    -0.35800
N1819       N  0.95146751  0.70955772  0.52303044    -0.37600
C1820       C  0.96463880  0.70835299  0.53088129    -0.03200
C1821       C  0.97325781  0.70815541  0.51072117     0.05400
C1822       C  0.96453444  0.70930873  0.99078188     0.03500
H1823       H  0.96769557  0.70809806  0.54989602     0.08600
H1824       H  0.96745656  0.70985315  0.97176002     0.07400
C1825       C  0.03450455  0.70915752  0.49944321     0.20700
C1826       C  0.02247342  0.70971555  0.48512223    -0.39200
C1827       C  0.01002985  0.70879128  0.49792910     0.19600
C1828       C  0.00959205  0.70747639  0.52308466     0.22300
C1829       C  0.02162761  0.70697570  0.53742087    -0.39700
C1830       C  0.03407651  0.70785461  0.52460280     0.21100
N1831       N  0.04759027  0.70984588  0.49167458    -0.33000
C1832       C  0.05556775  0.70900879  0.51202980    -0.10600
C1833       C  0.04749976  0.70775807  0.53293259    -0.29400
N1834       N  0.99648308  0.70692536  0.53084951    -0.46000
C1835       C  0.98850012  0.70790002  0.51049981    -0.05200
C1836       C  0.99660274  0.70905400  0.48960670    -0.22600
H1837       H  0.02277913  0.71079640  0.46545689     0.19200
H1838       H  0.02132059  0.70599547  0.55710284     0.18000
H1839       H  0.05096561  0.70697124  0.55169922     0.14300
H1840       H  0.99314738  0.71010453  0.47087120     0.14100
H1841       H  0.05085793  0.71096330  0.47361827     0.32300
H1842       H  0.99318650  0.70603502  0.54893420     0.35100
C1843       C  0.81407703  0.50680783  0.75145857     0.20700
C1844       C  0.81414636  0.51889240  0.73699099    -0.39200
C1845       C  0.81481996  0.53160935  0.74976994     0.19600
C1846       C  0.81537752  0.53222773  0.77501987     0.22300
C1847       C  0.81527302  0.52015261  0.78948020    -0.39700
C1848       C  0.81460032  0.50743902  0.77670846     0.21100
N1849       N  0.81367214  0.49346701  0.74374418    -0.33000
C1850       C  0.81393618  0.48551349  0.76420308    -0.10600
C1851       C  0.81448726  0.49388211  0.78514108    -0.29400
N1852       N  0.81617729  0.54552396  0.78274509    -0.46000
C1853       C  0.81612952  0.55346852  0.76229972    -0.05200
C1854       C  0.81527641  0.54514744  0.74134670    -0.22600
H1855       H  0.81379394  0.51841852  0.71723720     0.19200
H1856       H  0.81576799  0.52061935  0.80922456     0.18000
H1857       H  0.81484632  0.49051489  0.80398144     0.14300
H1858       H  0.81515978  0.54851369  0.72250150     0.14100
H1859       H  0.81327312  0.49000602  0.72561233     0.32300
H1860       H  0.81682694  0.54894878  0.80086967     0.35100
C1861       C  0.19846853  0.52673787  0.77162948     0.20700
C1862       C  0.19802819  0.53900414  0.78586272    -0.39200
C1863       C  0.19826014  0.55160300  0.77287471     0.19600
C1864       C  0.19889789  0.55196498  0.74763160     0.22300
C1865       C  0.19933098  0.53969239  0.73338466    -0.39700
C1866       C  0.19907566  0.52708552  0.74638098     0.21100
N1867       N  0.19805000  0.51349005  0.77957170    -0.33000
C1868       C  0.19829548  0.50530202  0.75926074    -0.10600
C1869       C  0.19900740  0.51342397  0.73818968    -0.29400
N1870       N  0.19920874  0.56523538  0.73972721    -0.46000
C1871       C  0.19882394  0.57340340  0.76007544    -0.05200
C1872       C  0.19816192  0.56525310  0.78110445    -0.22600
H1873       H  0.19751577  0.53875552  0.80560776     0.19200
H1874       H  0.19979182  0.53994350  0.71363531     0.18000
H1875       H  0.19914160  0.50985579  0.71939499     0.14300
H1876       H  0.19790078  0.56880157  0.79990809     0.14100
H1877       H  0.19732611  0.51026113  0.79773047     0.32300
H1878       H  0.19988143  0.56849936  0.72158386     0.35100
C1879       C  0.98587040  0.34045503  0.52406840     0.20700
C1880       C  0.99765886  0.34174885  0.53867802    -0.39200
C1881       C  0.00990154  0.34423407  0.52614838     0.19600
C1882       C  0.01038689  0.34537163  0.50097067     0.22300
C1883       C  0.99857517  0.34408913  0.48632720    -0.39700
C1884       C  0.98631050  0.34156154  0.49888022     0.21100
N1885       N  0.97301934  0.33805427  0.53161931    -0.33000
C1886       C  0.96515240  0.33763078  0.51114466    -0.10600
C1887       C  0.97310057  0.33972955  0.49031511    -0.29400
N1888       N  0.02336889  0.34730441  0.49349814    -0.46000
C1889       C  0.03120547  0.34732369  0.51406471    -0.05200
C1890       C  0.02313609  0.34551577  0.53479572    -0.22600
H1891       H  0.99734202  0.34076997  0.55835978     0.19200
H1892       H  0.99893365  0.34487611  0.46661971     0.18000
H1893       H  0.96966916  0.34000980  0.47149175     0.14300
H1894       H  0.02653108  0.34484183  0.55361380     0.14100
H1895       H  0.96981156  0.33683267  0.54968374     0.32300
H1896       H  0.02671785  0.34823413  0.47545391     0.35100
C1897       C  0.24364216  0.30044054  0.88436835     0.20700
C1898       C  0.24895257  0.28673619  0.88770414    -0.39200
C1899       C  0.26327719  0.28481971  0.88520216     0.19600
C1900       C  0.27169034  0.29569871  0.87964357     0.22300
C1901       C  0.26636627  0.30943380  0.87621448    -0.39700
C1902       C  0.25200528  0.31136359  0.87880500     0.21100
N1903       N  0.23042517  0.30500180  0.88647544    -0.33000
C1904       C  0.23031270  0.31894637  0.88224134    -0.10600
C1905       C  0.24358177  0.32330780  0.87725697    -0.29400
N1906       N  0.28496431  0.29110369  0.87842910    -0.46000
C1907       C  0.28497016  0.27721280  0.88332847    -0.05200
C1908       C  0.27162921  0.27293227  0.88766712    -0.22600
H1909       H  0.24241931  0.27821243  0.89217839     0.19200
H1910       H  0.27292186  0.31799048  0.87204660     0.18000
H1911       H  0.24668231  0.33381644  0.87348757     0.14300
H1912       H  0.26844675  0.26251912  0.89195302     0.14100
H1913       H  0.22202225  0.29897770  0.89072240     0.32300
H1914       H  0.29347578  0.29707009  0.87462654     0.35100
C1915       C  0.26606889  0.28721022  0.63312692     0.20700
C1916       C  0.25184087  0.28796740  0.62844376    -0.39200
C1917       C  0.24546047  0.30134382  0.63015108     0.19600
C1918       C  0.25268161  0.31309361  0.63600168     0.22300
C1919       C  0.26694094  0.31234277  0.64059978    -0.39700
C1920       C  0.27332228  0.29893581  0.63900672     0.21100
N1921       N  0.27440132  0.27565393  0.63347305    -0.33000
C1922       C  0.28705255  0.28001965  0.63976239    -0.10600
C1923       C  0.28680285  0.29449039  0.64328463    -0.29400
N1924       N  0.24410988  0.32447857  0.63735324    -0.46000
C1925       C  0.23134514  0.31990781  0.63238731    -0.05200
C1926       C  0.23180230  0.30554952  0.62768834    -0.22600
H1927       H  0.24611506  0.27878073  0.62421085     0.19200
H1928       H  0.27259544  0.32147043  0.64550714     0.18000
H1929       H  0.29528280  0.30087781  0.64855117     0.14300
H1930       H  0.22325741  0.29898485  0.62362156     0.14100
H1931       H  0.27157677  0.26540884  0.63004446     0.32300
H1932       H  0.24675601  0.33465368  0.64180827     0.35100
C1933       C  0.31720652  0.04581585  0.52822862     0.20700
C1934       C  0.31733995  0.05796533  0.54273969    -0.39200
C1935       C  0.31670662  0.07068447  0.53002645     0.19600
C1936       C  0.31603854  0.07125157  0.50478987     0.22300
C1937       C  0.31593891  0.05910467  0.49027678    -0.39700
C1938       C  0.31653290  0.04639149  0.50299191     0.21100
N1939       N  0.31748541  0.03247614  0.53588737    -0.33000
C1940       C  0.31695892  0.02447847  0.51539272    -0.10600
C1941       C  0.31639433  0.03280432  0.49450613    -0.29400
N1942       N  0.31563124  0.08458822  0.49713109    -0.46000
C1943       C  0.31606100  0.09261062  0.51761284    -0.05200
C1944       C  0.31670598  0.08428906  0.53850718    -0.22600
H1945       H  0.31785375  0.05754610  0.56247995     0.19200
H1946       H  0.31539489  0.05952354  0.47053748     0.18000
H1947       H  0.31577694  0.02940216  0.47566417     0.14300
H1948       H  0.31729505  0.08770679  0.55734311     0.14100
H1949       H  0.31787553  0.02905140  0.55399264     0.32300
H1950       H  0.31524223  0.08799280  0.47900898     0.35100
C1951       C  0.26956517  0.81014456  0.62510594     0.20700
C1952       C  0.25634844  0.80573528  0.61912217    -0.39200
C1953       C  0.25394963  0.79165915  0.62393449     0.19600
C1954       C  0.26393693  0.78264956  0.63394600     0.22300
C1955       C  0.27719147  0.78705139  0.63982392    -0.39700
C1956       C  0.27959583  0.80114655  0.63501717     0.21100
N1957       N  0.27431502  0.82305812  0.62271621    -0.33000
C1958       C  0.28748422  0.82231234  0.63115395    -0.10600
C1959       C  0.29115891  0.80879286  0.63894602    -0.29400
N1960       N  0.25895721  0.76987495  0.63721763    -0.46000
C1961       C  0.24570296  0.77076425  0.62920551    -0.05200
C1962       C  0.24223620  0.78419184  0.62072752    -0.22600
H1963       H  0.24847080  0.81277932  0.61148873     0.19200
H1964       H  0.28500911  0.78005719  0.64776295     0.18000
H1965       H  0.30091461  0.80508152  0.64664464     0.14300
H1966       H  0.23241796  0.78804513  0.61347774     0.14100
H1967       H  0.26887462  0.83183845  0.61587678     0.32300
H1968       H  0.26423126  0.76113843  0.64458565     0.35100
C1969       C  0.25231426  0.79061803  0.90002017     0.20700
C1970       C  0.25350639  0.80488305  0.90539979    -0.39200
C1971       C  0.26672303  0.81006967  0.90243708     0.19600
C1972       C  0.27785453  0.80167868  0.89470140     0.22300
C1973       C  0.27665264  0.78743477  0.88933311    -0.39700
C1974       C  0.26345865  0.78225426  0.89227136     0.21100
N1975       N  0.24091303  0.78315885  0.90140971    -0.33000
C1976       C  0.24483716  0.76995875  0.89447288    -0.10600
C1977       C  0.25882471  0.76899318  0.88859306    -0.29400
N1978       N  0.28926804  0.80909569  0.89311021    -0.46000
C1979       C  0.28541401  0.82232488  0.89986954    -0.05200
C1980       C  0.27141367  0.82334708  0.90587378    -0.22600
H1981       H  0.24479565  0.81144915  0.91140583     0.19200
H1982       H  0.28535011  0.78087626  0.88325618     0.18000
H1983       H  0.26481709  0.75982676  0.88258668     0.14300
H1984       H  0.26544268  0.83256175  0.91172733     0.14100
H1985       H  0.23108653  0.78685083  0.90674278     0.32300
H1986       H  0.29905738  0.80536821  0.88764026     0.35100
C1987       C  0.51349526  0.82494854  0.77853080     0.20700
C1988       C  0.50160954  0.82681683  0.79299034    -0.39200
C1989       C  0.48926323  0.82977082  0.78025391     0.19600
C1990       C  0.48880139  0.83079537  0.75504914     0.22300
C1991       C  0.50069563  0.82896825  0.74059768    -0.39700
C1992       C  0.51304019  0.82599214  0.75332883     0.21100
N1993       N  0.52643700  0.82189294  0.78619823    -0.33000
C1994       C  0.53431066  0.82095791  0.76576040    -0.10600
C1995       C  0.52630636  0.82347365  0.74487673    -0.29400
N1996       N  0.47581698  0.83360624  0.74734861    -0.46000
C1997       C  0.46792540  0.83439645  0.76777195    -0.05200
C1998       C  0.47596668  0.83207303  0.78867719    -0.22600
H1999       H  0.50194430  0.82597170  0.81269822     0.19200
H2000       H  0.50034957  0.82973949  0.72088180     0.18000
H2001       H  0.52969968  0.82338406  0.72605409     0.14300
H2002       H  0.47256350  0.83206848  0.80749234     0.14100
H2003       H  0.52967544  0.82044691  0.80427820     0.32300
H2004       H  0.47255360  0.83494997  0.72926042     0.35100
C2005       C  0.75749622  0.77656545  0.65419424     0.20700
C2006       C  0.77145697  0.77512739  0.64747455    -0.39200
C2007       C  0.77773883  0.76179134  0.65087411     0.19600
C2008       C  0.77066799  0.75078060  0.66036229     0.22300
C2009       C  0.75675726  0.75224145  0.66720670    -0.39700
C2010       C  0.75046806  0.76552859  0.66368744     0.21100
N2011       N  0.74894501  0.78786492  0.65132096    -0.33000
C2012       C  0.73637185  0.78393364  0.65887678    -0.10600
C2013       C  0.73695922  0.77010945  0.66690620    -0.29400
N2014       N  0.77871683  0.73902196  0.66069370    -0.46000
C2015       C  0.79100822  0.74251662  0.65124445    -0.05200
C2016       C  0.79082127  0.75666273  0.64502554    -0.22600
H2017       H  0.77691061  0.78364290  0.63955250     0.19200
H2018       H  0.75113393  0.74356037  0.67411660     0.18000
H2019       H  0.72854205  0.76404273  0.67337711     0.14300
H2020       H  0.79901352  0.76234725  0.63676460     0.14100
H2021       H  0.75142498  0.79747977  0.64392237     0.32300
H2022       H  0.77588540  0.72916197  0.66648126     0.35100
C2023       C  0.74990645  0.76757323  0.86514210     0.20700
C2024       C  0.75526487  0.75399042  0.86050474    -0.39200
C2025       C  0.76940892  0.75176073  0.86496053     0.19600
C2026       C  0.77761920  0.76226995  0.87335961     0.22300
C2027       C  0.77226414  0.77591320  0.87790360    -0.39700
C2028       C  0.75806628  0.77813565  0.87350781     0.21100
N2029       N  0.73665568  0.77208052  0.86355360    -0.33000
C2030       C  0.73627763  0.78560394  0.87108483    -0.10600
C2031       C  0.74946869  0.78980980  0.87730893    -0.29400
N2032       N  0.79056901  0.75724153  0.87739819    -0.46000
C2033       C  0.79056549  0.74342460  0.87163485    -0.05200
C2034       C  0.77756543  0.73965835  0.86362057    -0.22600
H2035       H  0.74881158  0.74567074  0.85446450     0.19200
H2036       H  0.77860126  0.78408073  0.88493994     0.18000
H2037       H  0.75231781  0.79987631  0.88438239     0.14300
H2038       H  0.77437489  0.72936354  0.85834003     0.14100
H2039       H  0.72833348  0.76614947  0.85829984     0.32300
H2040       H  0.79878829  0.76280651  0.88424860     0.35100
C2041       C  0.70827578  0.98663374  0.50481434     0.20700
C2042       C  0.70704166  0.99873256  0.49037828    -0.39200
C2043       C  0.70662217  0.01152794  0.50312823     0.19600
C2044       C  0.70741264  0.01222665  0.52834303     0.22300
C2045       C  0.70868200  0.00012322  0.54278928    -0.39700
C2046       C  0.70905715  0.98731863  0.53003510     0.21100
N2047       N  0.70815814  0.97325106  0.49716397    -0.33000
C2048       C  0.70871509  0.96529931  0.51763089    -0.10600
C2049       C  0.70944248  0.97372940  0.53850107    -0.29400
N2050       N  0.70684591  0.02562890  0.53602010    -0.46000
C2051       C  0.70575456  0.03356866  0.51556421    -0.05200
C2052       C  0.70551265  0.02510524  0.49468747    -0.22600
H2053       H  0.70629623  0.99821545  0.47066249     0.19200
H2054       H  0.70916240  0.00063496  0.56253152     0.18000
H2055       H  0.70962709  0.97041005  0.55737070     0.14300
H2056       H  0.70483306  0.02842352  0.47584042     0.14100
H2057       H  0.70722102  0.96978600  0.47910817     0.32300
H2058       H  0.70737330  0.02914247  0.55410839     0.35100
C2059       C  0.53218203  0.22642426  0.77629004     0.20700
C2060       C  0.52052214  0.22950180  0.79082512    -0.39200
C2061       C  0.50801678  0.23167692  0.77817456     0.19600
C2062       C  0.50720180  0.23096268  0.75295336     0.22300
C2063       C  0.51887921  0.22798276  0.73839912    -0.39700
C2064       C  0.53136954  0.22570394  0.75106574     0.21100
N2065       N  0.54506978  0.22307138  0.78397129    -0.33000
C2066       C  0.55252386  0.22010076  0.76352400    -0.10600
C2067       C  0.54434264  0.22174926  0.74261862    -0.29400
N2068       N  0.49406333  0.23296364  0.74542860    -0.46000
C2069       C  0.48642539  0.23491514  0.76599491    -0.05200
C2070       C  0.49479233  0.23421773  0.78678526    -0.22600
H2071       H  0.52108583  0.22982257  0.81057163     0.19200
H2072       H  0.51822792  0.22715242  0.71870239     0.18000
H2073       H  0.54734116  0.21982250  0.72383123     0.14300
H2074       H  0.49162327  0.23525759  0.80567158     0.14100
H2075       H  0.54846990  0.22245752  0.80209478     0.32300
H2076       H  0.49050593  0.23280548  0.72737769     0.35100
C2077       C  0.74631680  0.25091596  0.90948799     0.20700
C2078       C  0.75939018  0.25572637  0.91512750    -0.39200
C2079       C  0.76152861  0.26965106  0.90903704     0.19600
C2080       C  0.75148017  0.27818209  0.89803207     0.22300
C2081       C  0.73834183  0.27336035  0.89242004    -0.39700
C2082       C  0.73616415  0.25938871  0.89863037     0.21100
N2083       N  0.74185708  0.23800558  0.91307625    -0.33000
C2084       C  0.72874917  0.23818144  0.90442818    -0.10600
C2085       C  0.72479231  0.25136600  0.89536007    -0.29400
N2086       N  0.75624093  0.29098458  0.89396239    -0.46000
C2087       C  0.76937288  0.29052812  0.90261688    -0.05200
C2088       C  0.77299834  0.27739731  0.91211583    -0.22600
H2089       H  0.76734073  0.24909226  0.92356354     0.19200
H2090       H  0.73043940  0.27995733  0.88377719     0.18000
H2091       H  0.71503212  0.25457426  0.88708735     0.14300
H2092       H  0.78275613  0.27391381  0.92008940     0.14100
H2093       H  0.74748797  0.22956529  0.92069135     0.32300
H2094       H  0.75089509  0.29947230  0.88590975     0.35100
C2095       C  0.74716113  0.25158582  0.61798965     0.20700
C2096       C  0.76023788  0.25613080  0.61185117    -0.39200
C2097       C  0.76250481  0.27019043  0.61695427     0.19600
C2098       C  0.75254821  0.27909125  0.62742723     0.22300
C2099       C  0.73941985  0.27452622  0.63359377    -0.39700
C2100       C  0.73712615  0.26041125  0.62843183     0.21100
N2101       N  0.74258463  0.23864258  0.61525555    -0.33000
C2102       C  0.72952494  0.23914740  0.62404303    -0.10600
C2103       C  0.72571358  0.25257284  0.63237987    -0.29400
N2104       N  0.75741246  0.29194383  0.63061545    -0.46000
C2105       C  0.77054049  0.29114022  0.62206185    -0.05200
C2106       C  0.77405120  0.27774098  0.61339798    -0.22600
H2107       H  0.76809947  0.24920287  0.60379617     0.19200
H2108       H  0.73161283  0.28141666  0.64188860     0.18000
H2109       H  0.71600602  0.25607537  0.64051004     0.14300
H2110       H  0.78378269  0.27395876  0.60570707     0.14100
H2111       H  0.74810604  0.22998293  0.60803757     0.32300
H2112       H  0.75216423  0.30065788  0.63823434     0.35100
loop_ 
_geom_bond_atom_site_label_1 
_geom_bond_atom_site_label_2 
_geom_bond_distance 
_geom_bond_site_symmetry_2 
_ccdc_geom_bond_type 
N1            N2   1.323       .  A
N1            C5   1.348       .  A
N1           Cu9   2.081       .  S
N2            C3   1.341       .  A
N2           Cu8   2.062       .  S
C3            C4   1.377       .  A
C3            H6   1.082       .  S
C4            C5   1.385       .  A
C4           C52   1.465       .  S
C5            H7   1.082       .  S
Cu8          N11   2.062       .  S
Cu9          N19   2.081       .  S
Cu10         N12   2.072       .  S
Cu10         N18   2.072       .  S
N11          N12   1.319       .  A
N11          C15   1.345       .  A
N12          C13   1.344       .  A
C13          C14   1.386       .  A
C13          H16   1.082       .  S
C14          C15   1.383       .  A
C14          C86   1.472       .  S
C15          H17   1.082       .  S
N18          N19   1.324       .  A
N18          C22   1.342       .  A
N19          C20   1.347       .  A
C20          C21   1.384       .  A
C20          H23   1.082       .  S
C21          C22   1.381       .  A
C21        C1046   1.472       .  S
C22          H24   1.081       .  S
N25          N26   1.323       .  A
N25          C29   1.348       .  A
N25         Cu33   2.082       .  S
N26          C27   1.342       .  A
N26         Cu32   2.067       .  S
C27          C28   1.379       .  A
C27          H30   1.082       .  S
C28          C29   1.384       .  A
C28          C62   1.467       .  S
C29          H31   1.082       .  S
Cu32         N35   2.066       .  S
Cu33         N43   2.082       .  S
Cu34         N36   2.074       .  S
Cu34         N42   2.074       .  S
N35          N36   1.320       .  A
N35          C39   1.346       .  A
N36          C37   1.344       .  A
C37          C38   1.386       .  A
C37          H40   1.082       .  S
C38          C39   1.383       .  A
C38          C76   1.474       .  S
C39          H41   1.082       .  S
N42          N43   1.323       .  A
N42          C46   1.343       .  A
N43          C44   1.347       .  A
C44          C45   1.385       .  A
C44          H47   1.082       .  S
C45          C46   1.382       .  A
C45        C1028   1.473       .  S
C46          H48   1.082       .  S
N49          N50   1.322       .  A
N49          C53   1.346       .  A
N49         Cu57   2.073       .  S
N50          C51   1.343       .  A
N50         Cu56   2.067       .  S
C51          C52   1.380       .  A
C51          H54   1.082       .  S
C52          C53   1.382       .  A
C53          H55   1.082       .  S
Cu56         N59   2.067       .  S
Cu57         N67   2.074       .  S
Cu58         N60   2.080       .  S
Cu58         N66   2.080       .  S
N59          N60   1.323       .  A
N59          C63   1.343       .  A
N60          C61   1.347       .  A
C61          C62   1.382       .  A
C61          H64   1.082       .  S
C62          C63   1.380       .  A
C63          H65   1.082       .  S
N66          N67   1.321       .  A
N66          C70   1.347       .  A
N67          C68   1.345       .  A
C68          C69   1.385       .  A
C68          H71   1.082       .  S
C69          C70   1.386       .  A
C69        C1010   1.478       .  S
C70          H72   1.082       .  S
N73          N74   1.321       .  A
N73          C77   1.350       .  A
N73         Cu81   2.095       .  S
N74          C75   1.341       .  A
N74       Cu1136   2.053       .  S
C75          C76   1.379       .  A
C75          H78   1.082       .  S
C76          C77   1.390       .  A
C77          H79   1.082       .  S
Cu80         N83   2.054       .  S
Cu80       N1130   2.054   1_554  S
Cu81         N91   2.097       .  S
Cu82         N84   2.089       .  S
Cu82         N90   2.091       .  S
N83          N84   1.321       .  A
N83          C87   1.341       .  A
N84          C85   1.349       .  A
C85          C86   1.389       .  A
C85          H88   1.082       .  S
C86          C87   1.379       .  A
C87          H89   1.082       .  S
N90        N1147   1.325       .  A
N90          C94   1.348       .  A
N91        N1146   1.325       .  A
N91          C92   1.348       .  A
C92        C1149   1.387       .  A
C92          H95   1.082       .  S
C93          C94   1.386       .  A
C93        C1148   1.387   1_554  A
C93         C995   1.484       .  S
C94          H96   1.082       .  S
N97          N98   1.324       .  A
N97         C101   1.346       .  A
N97        Cu105   2.075       .  S
N98          C99   1.345       .  A
N98        Cu104   2.083       .  S
C99         C100   1.383       .  A
C99         H102   1.082       .  S
C100        C101   1.382       .  A
C100        C182   1.469       .  S
C101        H103   1.082       .  S
Cu104       N107   2.082       .  S
Cu105       N115   2.074       .  S
Cu106       N108   2.071       .  S
Cu106       N114   2.071       .  S
N107        N108   1.322       .  A
N107        C111   1.349       .  A
N108        C109   1.342       .  A
C109        C110   1.382       .  A
C109        H112   1.082       .  S
C110        C111   1.387       .  A
C110        C158   1.474       .  S
C111        H113   1.082       .  S
N114        N115   1.321       .  A
N114        C118   1.344       .  A
N115        C116   1.347       .  A
C116        C117   1.385       .  A
C116        H119   1.082       .  S
C117        C118   1.384       .  A
C117        C974   1.475       .  S
C118        H120   1.081       .  S
N121        N122   1.324       .  A
N121        C125   1.347       .  A
N121       Cu129   2.079       .  S
N122        C123   1.344       .  A
N122       Cu128   2.081       .  S
C123        C124   1.383       .  A
C123        H126   1.082       .  S
C124        C125   1.382       .  A
C124        C172   1.470       .  S
C125        H127   1.082       .  S
Cu128       N131   2.080       .  S
Cu129       N139   2.078       .  S
Cu130       N132   2.065       .  S
Cu130       N138   2.066       .  S
N131        N132   1.322       .  A
N131        C135   1.348       .  A
N132        C133   1.342       .  A
C133        C134   1.381       .  A
C133        H136   1.082       .  S
C134        C135   1.386       .  A
C134        C148   1.472       .  S
C135        H137   1.082       .  S
N138        N139   1.321       .  A
N138        C142   1.343       .  A
N139        C140   1.347       .  A
C140        C141   1.386       .  A
C140        H143   1.082       .  S
C141        C142   1.383       .  A
C141        C956   1.475       .  S
C142        H144   1.082       .  S
N145        N146   1.322       .  A
N145        C149   1.348       .  A
N145       Cu153   2.079       .  S
N146        C147   1.342       .  A
N146       Cu152   2.064       .  S
C147        C148   1.381       .  A
C147        H150   1.082       .  S
C148        C149   1.385       .  A
C149        H151   1.082       .  S
Cu152       N155   2.063       .  S
Cu153       N163   2.080       .  S
Cu154       N156   2.082       .  S
Cu154       N162   2.082       .  S
N155        N156   1.321       .  A
N155        C159   1.341       .  A
N156        C157   1.349       .  A
C157        C158   1.387       .  A
C157        H160   1.082       .  S
C158        C159   1.381       .  A
C159        H161   1.082       .  S
N162        N163   1.323       .  A
N162        C166   1.346       .  A
N163        C164   1.347       .  A
C164        C165   1.385       .  A
C164        H167   1.082       .  S
C165        C166   1.384       .  A
C165        C938   1.477       .  S
C166        H168   1.081       .  S
N169        N170   1.322       .  A
N169        C173   1.350       .  A
N169       Cu177   2.089       .  S
N170        C171   1.341       .  A
N170       Cu176   2.062       .  S
C171        C172   1.378       .  A
C171        H174   1.082       .  S
C172        C173   1.388       .  A
C173        H175   1.082       .  S
Cu176      N1235   2.062   1_554  S
Cu177       N187   2.091       .  S
Cu178       N180   2.086       .  S
Cu178      N1242   2.088       .  S
N179        N180   1.321       .  A
N179        C183   1.342       .  A
N179      Cu1232   2.062       .  S
N180        C181   1.349       .  A
C181        C182   1.387       .  A
C181        H184   1.082       .  S
C182        C183   1.379       .  A
C183        H185   1.082       .  S
N186        N187   1.324       .  A
N186       C1246   1.348   1_554  A
N186      Cu1234   2.088   1_554  S
N187        C188   1.348       .  A
C188        C189   1.387       .  A
C188        H191   1.082       .  S
C189       C1246   1.386   1_554  A
C189        C992   1.483       .  S
C190       N1242   1.348       .  A
C190       C1245   1.386       .  A
C190        H192   1.082       .  S
N193        N194   1.324       .  A
N193        C197   1.348       .  A
N193       Cu201   2.083       .  S
N194        C195   1.343       .  A
N194       Cu200   2.074       .  S
C195        C196   1.379       .  A
C195        H198   1.082       .  S
C196        C197   1.383       .  A
C196        C244   1.467       .  S
C197        H199   1.082       .  S
Cu200       N203   2.074       .  S
Cu201       N211   2.083       .  S
Cu202       N204   2.066       .  S
Cu202       N210   2.066       .  S
N203        N204   1.321       .  A
N203        C207   1.348       .  A
N204        C205   1.342       .  A
C205        C206   1.382       .  A
C205        H208   1.082       .  S
C206        C207   1.385       .  A
C206        C278   1.472       .  S
C207        H209   1.082       .  S
N210        N211   1.322       .  A
N210        C214   1.344       .  A
N211        C212   1.346       .  A
C212        C213   1.386       .  A
C212        H215   1.082       .  S
C213        C214   1.382       .  A
C213        C923   1.474       .  S
C214        H216   1.082       .  S
N217        N218   1.324       .  A
N217        C221   1.346       .  A
N217       Cu225   2.080       .  S
N218        C219   1.346       .  A
N218       Cu224   2.081       .  S
C219        C220   1.382       .  A
C219        H222   1.082       .  S
C220        C221   1.382       .  A
C220        C254   1.470       .  S
C221        H223   1.082       .  S
Cu224       N227   2.080       .  S
Cu225       N235   2.080       .  S
Cu226       N228   2.070       .  S
Cu226       N234   2.070       .  S
N227        N228   1.322       .  A
N227        C231   1.348       .  A
N228        C229   1.343       .  A
C229        C230   1.383       .  A
C229        H232   1.082       .  S
C230        C231   1.385       .  A
C230        C268   1.472       .  S
C231        H233   1.082       .  S
N234        N235   1.322       .  A
N234        C238   1.344       .  A
N235        C236   1.347       .  A
C236        C237   1.386       .  A
C236        H239   1.082       .  S
C237        C238   1.383       .  A
C237        C902   1.476       .  S
C238        H240   1.082       .  S
N241        N242   1.322       .  A
N241        C245   1.348       .  A
N241       Cu249   2.074       .  S
N242        C243   1.342       .  A
N242       Cu248   2.065       .  S
C243        C244   1.379       .  A
C243        H246   1.082       .  S
C244        C245   1.384       .  A
C245        H247   1.082       .  S
Cu248       N251   2.065       .  S
Cu249       N259   2.075       .  S
Cu250       N252   2.084       .  S
Cu250       N258   2.085       .  S
N251        N252   1.322       .  A
N251        C255   1.344       .  A
N252        C253   1.348       .  A
C253        C254   1.386       .  A
C253        H256   1.082       .  S
C254        C255   1.380       .  A
C255        H257   1.082       .  S
N258        N259   1.323       .  A
N258        C262   1.347       .  A
N259        C260   1.345       .  A
C260        C261   1.384       .  A
C260        H263   1.082       .  S
C261        C262   1.385       .  A
C261        C941   1.477       .  S
C262        H264   1.082       .  S
N265        N266   1.321       .  A
N265        C269   1.348       .  A
N265       Cu273   2.082       .  S
N266        C267   1.342       .  A
N266       Cu272   2.061       .  S
C267        C268   1.381       .  A
C267        H270   1.082       .  S
C268        C269   1.387       .  A
C269        H271   1.082       .  S
Cu272      N1331   2.061   1_554  S
Cu273       N283   2.084       .  S
Cu274       N276   2.081       .  S
Cu274      N1338   2.082       .  S
N275        N276   1.321       .  A
N275        C279   1.341       .  A
N275      Cu1328   2.060       .  S
N276        C277   1.349       .  A
C277        C278   1.387       .  A
C277        H280   1.082       .  S
C278        C279   1.380       .  A
C279        H281   1.082       .  S
N282        N283   1.324       .  A
N282       C1342   1.346   1_564  A
N282      Cu1330   2.083   1_554  S
N283        C284   1.347   1_565  A
C284        C285   1.385       .  A
C284        H287   1.082       .  S
C285       C1342   1.384   1_554  A
C285        C884   1.478       .  S
C286       N1338   1.346   1_545  A
C286       C1341   1.384       .  A
C286        H288   1.082       .  S
N289        N290   1.322       .  A
N289        C293   1.348       .  A
N289       Cu297   2.081       .  S
N290        C291   1.344       .  A
N290       Cu296   2.075       .  S
C291        C292   1.382       .  A
C291        H294   1.082       .  S
C292        C293   1.385       .  A
C292        C350   1.471       .  S
C293        H295   1.082       .  S
Cu296       N299   2.074       .  S
Cu297       N307   2.081       .  S
Cu298       N300   2.071       .  S
Cu298       N306   2.071       .  S
N299        N300   1.322       .  A
N299        C303   1.346       .  A
N300        C301   1.344       .  A
C301        C302   1.383       .  A
C301        H304   1.082       .  S
C302        C303   1.383       .  A
C302        C374   1.471       .  S
C303        H305   1.082       .  S
N306        N307   1.323       .  A
N306        C310   1.345       .  A
N307        C308   1.345       .  A
C308        C309   1.384       .  A
C308        H311   1.082       .  S
C309        C310   1.383       .  A
C309        C866   1.473       .  S
C310        H312   1.082       .  S
N313        N314   1.323       .  A
N313        C317   1.349       .  A
N313       Cu321   2.084       .  S
N314        C315   1.342       .  A
N314       Cu320   2.072       .  S
C315        C316   1.380       .  A
C315        H318   1.082       .  S
C316        C317   1.385       .  A
C316        C340   1.468       .  S
C317        H319   1.082       .  S
Cu320       N323   2.072       .  S
Cu321       N331   2.085       .  S
Cu322       N324   2.075       .  S
Cu322       N330   2.075       .  S
N323        N324   1.321       .  A
N323        C327   1.347       .  A
N324        C325   1.344       .  A
C325        C326   1.385       .  A
C325        H328   1.082       .  S
C326        C327   1.384       .  A
C326        C364   1.474       .  S
C327        H329   1.082       .  S
N330        N331   1.324       .  A
N330        C334   1.346       .  A
N331        C332   1.346       .  A
C332        C333   1.385       .  A
C332        H335   1.082       .  S
C333        C334   1.382       .  A
C333        C851   1.474       .  S
C334        H336   1.082       .  S
N337        N338   1.322       .  A
N337        C341   1.349       .  A
N337       Cu345   2.079       .  S
N338        C339   1.342       .  A
N338      Cu1400   2.066       .  S
C339        C340   1.379       .  A
C339        H342   1.082       .  S
C340        C341   1.385       .  A
C341        H343   1.082       .  S
Cu344       N347   2.066       .  S
Cu344      N1394   2.066   1_554  S
Cu345       N355   2.080       .  S
Cu346       N348   2.088       .  S
Cu346       N354   2.090       .  S
N347        N348   1.322       .  A
N347        C351   1.343       .  A
N348        C349   1.350       .  A
C349        C350   1.387       .  A
C349        H352   1.082       .  S
C350        C351   1.379       .  A
C351        H353   1.082       .  S
N354       N1411   1.324       .  A
N354        C358   1.347       .  A
N355       N1410   1.324       .  A
N355        C356   1.346       .  A
C356       C1413   1.384       .  A
C356        H359   1.082       .  S
C357        C358   1.386       .  A
C357       C1412   1.384   1_554  A
C357        C887   1.479       .  S
C358        H360   1.082       .  S
N361        N362   1.322       .  A
N361        C365   1.349       .  A
N361       Cu369   2.087       .  S
N362        C363   1.342       .  A
N362       Cu368   2.061       .  S
C363        C364   1.380       .  A
C363        H366   1.082       .  S
C364        C365   1.388       .  A
C365        H367   1.082       .  S
Cu368       N371   2.061       .  S
Cu369       N379   2.087       .  S
Cu370       N372   2.079       .  S
Cu370       N378   2.079       .  S
N371        N372   1.322       .  A
N371        C375   1.343       .  A
N372        C373   1.347       .  A
C373        C374   1.386       .  A
C373        H376   1.082       .  S
C374        C375   1.381       .  A
C375        H377   1.082       .  S
N378        N379   1.323       .  A
N378        C382   1.346       .  A
N379        C380   1.347       .  A
C380        C381   1.386       .  A
C380        H383   1.082       .  S
C381        C382   1.384       .  A
C381       C1013   1.478       .  S
C382        H384   1.082       .  S
N385        N386   1.324       .  A
N385        C389   1.348       .  A
N385       Cu393   2.084       .  S
N386        C387   1.343       .  A
N386       Cu392   2.072       .  S
C387        C388   1.380       .  A
C387        H390   1.082       .  S
C388        C389   1.384       .  A
C388        C470   1.468       .  S
C389        H391   1.082       .  S
Cu392       N395   2.071       .  S
Cu393       N403   2.083       .  S
Cu394       N396   2.064       .  S
Cu394       N402   2.064       .  S
N395        N396   1.320       .  A
N395        C399   1.347       .  A
N396        C397   1.342       .  A
C397        C398   1.383       .  A
C397        H400   1.082       .  S
C398        C399   1.385       .  A
C398        C446   1.470       .  S
C399        H401   1.082       .  S
N402        N403   1.322       .  A
N402        C406   1.342       .  A
N403        C404   1.348       .  A
C404        C405   1.386       .  A
C404        H407   1.082       .  S
C405        C406   1.381       .  A
C405        C869   1.474       .  S
C406        H408   1.082       .  S
N409        N410   1.323       .  A
N409        C413   1.348       .  A
N409       Cu417   2.079       .  S
N410        C411   1.343       .  A
N410       Cu416   2.074       .  S
C411        C412   1.381       .  A
C411        H414   1.082       .  S
C412        C413   1.384       .  A
C412        C460   1.469       .  S
C413        H415   1.082       .  S
Cu416       N419   2.073       .  S
Cu417       N427   2.079       .  S
Cu418       N420   2.073       .  S
Cu418       N426   2.073       .  S
N419        N420   1.322       .  A
N419        C423   1.347       .  A
N420        C421   1.343       .  A
C421        C422   1.383       .  A
C421        H424   1.082       .  S
C422        C423   1.384       .  A
C422        C436   1.471       .  S
C423        H425   1.082       .  S
N426        N427   1.322       .  A
N426        C430   1.344       .  A
N427        C428   1.346       .  A
C428        C429   1.384       .  A
C428        H431   1.082       .  S
C429        C430   1.383       .  A
C429        C848   1.474       .  S
C430        H432   1.082       .  S
N433        N434   1.321       .  A
N433        C437   1.349       .  A
N433       Cu441   2.080       .  S
N434        C435   1.341       .  A
N434      Cu1496   2.062       .  S
C435        C436   1.380       .  A
C435        H438   1.082       .  S
C436        C437   1.387       .  A
C437        H439   1.082       .  S
Cu440       N443   2.061       .  S
Cu440      N1490   2.062   1_554  S
Cu441      N1507   2.081       .  S
Cu442       N444   2.076       .  S
Cu442       N450   2.078       .  S
N443        N444   1.320       .  A
N443        C447   1.341       .  A
N444        C445   1.348       .  A
C445        C446   1.386       .  A
C445        H448   1.082       .  S
C446        C447   1.381       .  A
C447        H449   1.082       .  S
N450        N451   1.324       .  A
N450        C454   1.344       .  A
N451       C1508   1.346   1_554  A
N451      Cu1497   2.081   1_554  S
C452       N1507   1.346       .  A
C452       C1509   1.384       .  A
C452        H455   1.082       .  S
C453        C454   1.384       .  A
C453       C1508   1.384   1_554  A
C453        C833   1.475       .  S
C454        H456   1.082       .  S
N457        N458   1.322       .  A
N457        C461   1.349       .  A
N457       Cu465   2.086       .  S
N458        C459   1.342       .  A
N458       Cu464   2.060       .  S
C459        C460   1.378       .  A
C459        H462   1.082       .  S
C460        C461   1.387       .  A
C461        H463   1.082       .  S
Cu464       N467   2.060       .  S
Cu465       N475   2.088       .  S
Cu466       N468   2.078       .  S
Cu466       N474   2.080       .  S
N467        N468   1.321       .  A
N467        C471   1.341       .  A
N468        C469   1.348       .  A
C469        C470   1.386       .  A
C469        H472   1.082       .  S
C470        C471   1.379       .  A
C471        H473   1.082       .  S
N474        N475   1.323       .  A
N474        C478   1.346       .  A
N475        C476   1.347       .  A
C476        C477   1.386       .  A
C476        H479   1.082       .  S
C477        C478   1.385       .  A
C477        C812   1.479       .  S
C478        H480   1.082       .  S
N481        N482   1.321       .  A
N481        C485   1.340       .  A
N481       Cu489   2.054       .  S
N482        C483   1.350       .  A
N482       Cu488   2.090       .  S
C483        C484   1.388       .  A
C483        H486   1.082       .  S
C484        C485   1.379       .  A
C484        C556   1.471       .  S
C485        H487   1.082       .  S
Cu488       N491   2.091       .  S
Cu489       N499   2.054       .  S
Cu490       N492   2.078       .  S
Cu490       N498   2.075       .  S
N491        N492   1.325       .  A
N491        C495   1.349       .  A
N492        C493   1.343       .  A
C493        C494   1.381       .  A
C493        H496   1.082       .  S
C494        C495   1.385       .  A
C494        C542   1.472       .  S
C495        H497   1.082       .  S
N498        N499   1.320       .  A
N498        C502   1.348       .  A
N499        C500   1.340       .  A
C500        C501   1.381       .  A
C500        H503   1.082       .  S
C501        C502   1.387       .  A
C501       C1049   1.471       .  S
C502        H504   1.082       .  S
N505        N506   1.321       .  A
N505        C509   1.341       .  A
N505       Cu513   2.058       .  S
N506        C507   1.351       .  A
N506       Cu512   2.092       .  S
C507        C508   1.388       .  A
C507        H510   1.082       .  S
C508        C509   1.380       .  A
C508        C566   1.474       .  S
C509        H511   1.082       .  S
Cu512       N515   2.094       .  S
Cu513       N523   2.057       .  S
Cu514       N516   2.077       .  S
Cu514       N522   2.075       .  S
N515        N516   1.326       .  A
N515        C519   1.349       .  A
N516        C517   1.343       .  A
C517        C518   1.380       .  A
C517        H520   1.082       .  S
C518        C519   1.385       .  A
C518        C532   1.472       .  S
C519        H521   1.082       .  S
N522        N523   1.320       .  A
N522        C526   1.349       .  A
N523        C524   1.339       .  A
C524        C525   1.381       .  A
C524        H527   1.081       .  S
C525        C526   1.387       .  A
C525       C1031   1.472       .  S
C526        H528   1.082       .  S
N529        N530   1.322       .  A
N529        C533   1.350       .  A
N529       Cu537   2.086       .  S
N530        C531   1.342       .  A
N530       Cu536   2.063       .  S
C531        C532   1.380       .  A
C531        H534   1.082       .  S
C532        C533   1.387       .  A
C533        H535   1.082       .  S
Cu536       N539   2.063       .  S
Cu537       N547   2.087       .  S
Cu538       N540   2.083       .  S
Cu538       N546   2.085       .  S
N539        N540   1.321       .  A
N539        C543   1.342       .  A
N540        C541   1.349       .  A
C541        C542   1.387       .  A
C541        H544   1.082       .  S
C542        C543   1.380       .  A
C543        H545   1.082       .  S
N546        N547   1.324       .  A
N546        C550   1.346       .  A
N547        C548   1.347       .  A
C548        C549   1.386       .  A
C548        H551   1.082       .  S
C549        C550   1.385       .  A
C549        C794   1.479       .  S
C550        H552   1.082       .  S
N553        N554   1.321       .  A
N553        C557   1.350       .  A
N553       Cu561   2.081       .  S
N554        C555   1.340       .  A
N554       Cu560   2.058       .  S
C555        C556   1.380       .  A
C555        H558   1.082       .  S
C556        C557   1.387       .  A
C557        H559   1.082       .  S
Cu560      N1619   2.058   1_554  S
Cu561       N571   2.083       .  S
Cu562       N564   2.083       .  S
Cu562       N570   2.084       .  S
N563        N564   1.321       .  A
N563        C567   1.341       .  A
N563      Cu1616   2.058       .  S
N564        C565   1.350       .  A
C565        C566   1.387       .  A
C565        H568   1.082       .  S
C566        C567   1.381       .  A
C567        H569   1.082       .  S
N570       N1627   1.323       .  A
N570        C574   1.347       .  A
N571       N1626   1.323   1_554  A
N571        C572   1.346       .  A
C572        C573   1.385       .  A
C572        H575   1.082       .  S
C573       C1630   1.385   1_554  A
C573        C830   1.477       .  S
C574       C1629   1.385       .  A
C574        H576   1.082       .  S
N577        N578   1.322       .  A
N577        C581   1.342       .  A
N577       Cu585   2.066       .  S
N578        C579   1.346       .  A
N578       Cu584   2.071       .  S
C579        C580   1.383       .  A
C579        H582   1.082       .  S
C580        C581   1.381       .  A
C580        C662   1.467       .  S
C581        H583   1.082       .  S
Cu584       N587   2.071       .  S
Cu585       N595   2.066       .  S
Cu586       N588   2.088       .  S
Cu586       N594   2.088       .  S
N587        N588   1.323       .  A
N587        C591   1.346       .  A
N588        C589   1.346       .  A
C589        C590   1.385       .  A
C589        H592   1.082       .  S
C590        C591   1.382       .  A
C590        C628   1.473       .  S
C591        H593   1.082       .  S
N594        N595   1.322       .  A
N594        C598   1.348       .  A
N595        C596   1.344       .  A
C596        C597   1.383       .  A
C596        H599   1.082       .  S
C597        C598   1.387       .  A
C597        C905   1.477       .  S
C598        H600   1.082       .  S
N601        N602   1.324       .  A
N601        C605   1.346       .  A
N601       Cu609   2.080       .  S
N602        C603   1.346       .  A
N602       Cu608   2.078       .  S
C603        C604   1.382       .  A
C603        H606   1.082       .  S
C604        C605   1.383       .  A
C604        C638   1.471       .  S
C605        H607   1.082       .  S
Cu608       N611   2.077       .  S
Cu609       N619   2.079       .  S
Cu610       N612   2.060       .  S
Cu610       N618   2.060       .  S
N611        N612   1.321       .  A
N611        C615   1.347       .  A
N612        C613   1.341       .  A
C613        C614   1.380       .  A
C613        H616   1.082       .  S
C614        C615   1.385       .  A
C614        C652   1.468       .  S
C615        H617   1.082       .  S
N618        N619   1.321       .  A
N618        C622   1.343       .  A
N619        C620   1.346       .  A
C620        C621   1.386       .  A
C620        H623   1.082       .  S
C621        C622   1.381       .  A
C621        C920   1.472       .  S
C622        H624   1.082       .  S
N625        N626   1.322       .  A
N625        C629   1.348       .  A
N625       Cu633   2.086       .  S
N626        C627   1.343       .  A
N626       Cu632   2.061       .  S
C627        C628   1.380       .  A
C627        H630   1.082       .  S
C628        C629   1.387       .  A
C629        H631   1.082       .  S
Cu632       N635   2.061       .  S
Cu633       N643   2.086       .  S
Cu634       N636   2.080       .  S
Cu634       N642   2.080       .  S
N635        N636   1.322       .  A
N635        C639   1.344       .  A
N636        C637   1.347       .  A
C637        C638   1.385       .  A
C637        H640   1.082       .  S
C638        C639   1.381       .  A
C639        H641   1.082       .  S
N642        N643   1.323       .  A
N642        C646   1.346       .  A
N643        C644   1.347       .  A
C644        C645   1.386       .  A
C644        H647   1.082       .  S
C645        C646   1.385       .  A
C645        C815   1.479       .  S
C646        H648   1.082       .  S
N649        N650   1.321       .  A
N649        C653   1.347       .  A
N649       Cu657   2.074       .  S
N650        C651   1.341       .  A
N650      Cu1712   2.058       .  S
C651        C652   1.380       .  A
C651        H654   1.082       .  S
C652        C653   1.385       .  A
C653        H655   1.082       .  S
Cu656       N659   2.058       .  S
Cu656      N1706   2.058   1_554  S
Cu657      N1723   2.076       .  S
Cu658       N660   2.073       .  S
Cu658       N666   2.075       .  S
N659        N660   1.321       .  A
N659        C663   1.340       .  A
N660        C661   1.347       .  A
C661        C662   1.385       .  A
C661        H664   1.082       .  S
C662        C663   1.379       .  A
C663        H665   1.082       .  S
N666        N667   1.323   1_554  A
N666        C670   1.345       .  A
N667       C1724   1.345       .  A
N667      Cu1713   2.077       .  S
C668       N1723   1.345       .  A
C668       C1725   1.384       .  A
C668        H671   1.082       .  S
C669        C670   1.383       .  A
C669       C1724   1.384   1_554  A
C669        C776   1.474       .  S
C670        H672   1.082       .  S
N673        N674   1.322       .  A
N673        C677   1.343       .  A
N673       Cu681   2.070       .  S
N674        C675   1.347       .  A
N674       Cu680   2.073       .  S
C675        C676   1.383       .  A
C675        H678   1.082       .  S
C676        C677   1.382       .  A
C676        C758   1.470       .  S
C677        H679   1.082       .  S
Cu680       N683   2.073       .  S
Cu681       N691   2.070       .  S
Cu682       N684   2.082       .  S
Cu682       N690   2.083       .  S
N683        N684   1.323       .  A
N683        C687   1.344       .  A
N684        C685   1.347       .  A
C685        C686   1.384       .  A
C685        H688   1.082       .  S
C686        C687   1.381       .  A
C686        C734   1.467       .  S
C687        H689   1.082       .  S
N690        N691   1.322       .  A
N690        C694   1.346       .  A
N691        C692   1.345       .  A
C692        C693   1.382       .  A
C692        H695   1.082       .  S
C693        C694   1.386       .  A
C693        C977   1.475       .  S
C694        H696   1.082       .  S
N697        N698   1.322       .  A
N697        C701   1.343       .  A
N697       Cu705   2.074       .  S
N698        C699   1.348       .  A
N698       Cu704   2.075       .  S
C699        C700   1.384       .  A
C699        H702   1.082       .  S
C700        C701   1.383       .  A
C700        C748   1.472       .  S
C701        H703   1.082       .  S
Cu704       N707   2.075       .  S
Cu705       N715   2.073       .  S
Cu706       N708   2.077       .  S
Cu706       N714   2.078       .  S
N707        N708   1.323       .  A
N707        C711   1.344       .  A
N708        C709   1.346       .  A
C709        C710   1.382       .  A
C709        H712   1.082       .  S
C710        C711   1.381       .  A
C710        C724   1.466       .  S
C711        H713   1.082       .  S
N714        N715   1.322       .  A
N714        C718   1.346       .  A
N715        C716   1.345       .  A
C716        C717   1.384       .  A
C716        H719   1.082       .  S
C717        C718   1.385       .  A
C717        C959   1.476       .  S
C718        H720   1.082       .  S
N721        N722   1.322       .  A
N721        C725   1.347       .  A
N721       Cu729   2.075       .  S
N722        C723   1.342       .  A
N722       Cu728   2.064       .  S
C723        C724   1.379       .  A
C723        H726   1.082       .  S
C724        C725   1.384       .  A
C725        H727   1.082       .  S
Cu728       N731   2.064       .  S
Cu729       N739   2.076       .  S
Cu730       N732   2.077       .  S
Cu730       N738   2.078       .  S
N731        N732   1.322       .  A
N731        C735   1.342       .  A
N732        C733   1.348       .  A
C733        C734   1.385       .  A
C733        H736   1.082       .  S
C734        C735   1.379       .  A
C735        H737   1.082       .  S
N738        N739   1.322       .  A
N738        C742   1.345       .  A
N739        C740   1.346       .  A
C740        C741   1.385       .  A
C740        H743   1.082       .  S
C741        C742   1.385       .  A
C741        C797   1.477       .  S
C742        H744   1.081       .  S
N745        N746   1.322       .  A
N745        C749   1.349       .  A
N745       Cu753   2.086       .  S
N746        C747   1.341       .  A
N746       Cu752   2.060       .  S
C747        C748   1.380       .  A
C747        H750   1.082       .  S
C748        C749   1.387       .  A
C749        H751   1.082       .  S
Cu752      N1811   2.059   1_554  S
Cu753       N763   2.086       .  S
Cu754       N756   2.080       .  S
Cu754       N762   2.081       .  S
N755        N756   1.321       .  A
N755        C759   1.342       .  A
N755      Cu1808   2.059       .  S
N756        C757   1.348       .  A
C757        C758   1.386       .  A
C757        H760   1.082       .  S
C758        C759   1.380       .  A
C759        H761   1.082       .  S
N762       N1819   1.324       .  A
N762        C766   1.345       .  A
N763       N1818   1.324   1_554  A
N763        C764   1.347       .  A
C764        C765   1.385       .  A
C764        H767   1.082       .  S
C765       C1822   1.384   1_554  A
C765        C779   1.477       .  S
C766       C1821   1.384       .  A
C766        H768   1.082       .  S
C769        N775   1.343       .  A
C769        C774   1.384   1_556  A
C769        C770   1.403       .  A
C770        C771   1.403       .  A
C770        H781   1.082       .  S
C771        C780   1.378   1_455  A
C771        C772   1.384   1_556  A
C772        N778   1.344   1_455  A
C772        C773   1.404       .  A
C773        C774   1.403       .  A
C773        H782   1.082       .  S
C774        C777   1.378       .  A
N775        C776   1.356   1_556  A
N775        H785   1.046       .  S
C776        C777   1.396       .  A
C777        H783   1.082       .  S
N778        C779   1.356       .  A
N778        H786   1.046       .  S
C779        C780   1.396   1_554  A
C780        H784   1.082       .  S
C787        N793   1.344       .  A
C787        C792   1.384       .  A
C787        C788   1.405       .  A
C788        C789   1.404       .  A
C788        H799   1.082       .  S
C789        C798   1.380       .  A
C789        C790   1.384       .  A
C790        N796   1.344       .  A
C790        C791   1.404       .  A
C791        C792   1.404       .  A
C791        H800   1.082       .  S
C792        C795   1.380       .  A
N793        C794   1.357       .  A
N793        H803   1.046       .  S
C794        C795   1.397       .  A
C795        H801   1.082       .  S
N796        C797   1.356       .  A
N796        H804   1.046       .  S
C797        C798   1.397       .  A
C798        H802   1.082       .  S
C805        N811   1.344       .  A
C805        C810   1.384       .  A
C805        C806   1.405       .  A
C806        C807   1.404       .  A
C806        H817   1.082       .  S
C807        C816   1.379       .  A
C807        C808   1.384       .  A
C808        N814   1.345       .  A
C808        C809   1.405       .  A
C809        C810   1.405       .  A
C809        H818   1.082       .  S
C810        C813   1.380       .  A
N811        C812   1.356       .  A
N811        H821   1.046       .  S
C812        C813   1.397       .  A
C813        H819   1.082       .  S
N814        C815   1.357       .  A
N814        H822   1.046       .  S
C815        C816   1.397       .  A
C816        H820   1.082       .  S
C823        N829   1.343       .  A
C823        C828   1.384   1_554  A
C823        C824   1.403       .  A
C824        C825   1.402   1_655  A
C824        H835   1.082       .  S
C825        C834   1.377       .  A
C825        C826   1.384       .  A
C826        N832   1.345   1_554  A
C826        C827   1.406   1_454  A
C827        C828   1.405       .  A
C827        H836   1.082       .  S
C828        C831   1.381       .  A
N829        C830   1.356       .  A
N829        H839   1.046       .  S
C830        C831   1.398   1_554  A
C831        H837   1.082       .  S
N832        C833   1.357   1_556  A
N832        H840   1.046       .  S
C833        C834   1.395       .  A
C834        H838   1.082       .  S
C841        N847   1.342       .  A
C841        C846   1.384       .  A
C841        C842   1.402       .  A
C842        C843   1.400       .  A
C842        H853   1.082       .  S
C843        C852   1.376       .  A
C843        C844   1.384       .  A
C844        N850   1.345       .  A
C844        C845   1.406       .  A
C845        C846   1.405       .  A
C845        H854   1.082       .  S
C846        C849   1.380       .  A
N847        C848   1.355       .  A
N847        H857   1.044       .  S
C848        C849   1.397       .  A
C849        H855   1.082       .  S
N850        C851   1.357       .  A
N850        H858   1.044       .  S
C851        C852   1.394       .  A
C852        H856   1.082       .  S
C859        N865   1.343       .  A
C859        C864   1.384       .  A
C859        C860   1.402       .  A
C860        C861   1.401       .  A
C860        H871   1.082       .  S
C861        C870   1.375       .  A
C861        C862   1.384       .  A
C862        N868   1.345       .  A
C862        C863   1.404       .  A
C863        C864   1.404       .  A
C863        H872   1.082       .  S
C864        C867   1.378       .  A
N865        C866   1.355       .  A
N865        H875   1.044       .  S
C866        C867   1.396       .  A
C867        H873   1.082       .  S
N868        C869   1.356       .  A
N868        H876   1.044       .  S
C869        C870   1.395       .  A
C870        H874   1.082       .  S
C877        N883   1.345       .  A
C877        C882   1.384       .  A
C877        C878   1.405       .  A
C878        C879   1.404       .  A
C878        H889   1.082       .  S
C879        C888   1.380       .  A
C879        C880   1.384       .  A
C880        N886   1.344   1_554  A
C880        C881   1.405   1_554  A
C881        C882   1.404   1_556  A
C881        H890   1.082       .  S
C882        C885   1.379   1_554  A
N883        C884   1.357       .  A
N883        H893   1.046       .  S
C884        C885   1.397   1_554  A
C885        H891   1.082       .  S
N886        C887   1.357   1_556  A
N886        H894   1.046       .  S
C887        C888   1.397       .  A
C888        H892   1.082       .  S
C895        N901   1.343       .  A
C895        C900   1.384       .  A
C895        C896   1.403       .  A
C896        C897   1.403       .  A
C896        H907   1.082       .  S
C897        C906   1.377       .  A
C897        C898   1.384       .  A
C898        N904   1.345       .  A
C898        C899   1.405       .  A
C899        C900   1.404       .  A
C899        H908   1.082       .  S
C900        C903   1.380       .  A
N901        C902   1.356       .  A
N901        H911   1.044       .  S
C902        C903   1.396       .  A
C903        H909   1.082       .  S
N904        C905   1.357       .  A
N904        H912   1.044       .  S
C905        C906   1.396       .  A
C906        H910   1.082       .  S
C913        N919   1.343       .  A
C913        C918   1.384       .  A
C913        C914   1.404       .  A
C914        C915   1.403       .  A
C914        H925   1.082       .  S
C915        C924   1.378       .  A
C915        C916   1.384       .  A
C916        N922   1.342       .  A
C916        C917   1.402       .  A
C917        C918   1.401       .  A
C917        H926   1.082       .  S
C918        C921   1.377       .  A
N919        C920   1.357       .  A
N919        H929   1.044       .  S
C920        C921   1.394       .  A
C921        H927   1.082       .  S
N922        C923   1.355       .  A
N922        H930   1.044       .  S
C923        C924   1.397       .  A
C924        H928   1.082       .  S
C931        N937   1.344       .  A
C931        C936   1.384       .  A
C931        C932   1.404       .  A
C932        C933   1.403       .  A
C932        H943   1.082       .  S
C933        C942   1.379       .  A
C933        C934   1.384       .  A
C934        N940   1.344       .  A
C934        C935   1.405       .  A
C935        C936   1.404       .  A
C935        H944   1.082       .  S
C936        C939   1.380       .  A
N937        C938   1.356       .  A
N937        H947   1.046       .  S
C938        C939   1.397       .  A
C939        H945   1.082       .  S
N940        C941   1.356       .  A
N940        H948   1.046       .  S
C941        C942   1.397       .  A
C942        H946   1.082       .  S
C949        N955   1.345       .  A
C949        C954   1.384       .  A
C949        C950   1.405       .  A
C950        C951   1.405       .  A
C950        H961   1.082       .  S
C951        C960   1.379       .  A
C951        C952   1.384       .  A
C952        N958   1.343       .  A
C952        C953   1.402       .  A
C953        C954   1.401       .  A
C953        H962   1.082       .  S
C954        C957   1.375       .  A
N955        C956   1.357       .  A
N955        H965   1.044       .  S
C956        C957   1.395       .  A
C957        H963   1.082       .  S
N958        C959   1.355       .  A
N958        H966   1.044       .  S
C959        C960   1.397       .  A
C960        H964   1.082       .  S
C967        N973   1.341       .  A
C967        C972   1.384       .  A
C967        C968   1.402       .  A
C968        C969   1.400       .  A
C968        H979   1.082       .  S
C969        C978   1.377       .  A
C969        C970   1.384       .  A
C970        N976   1.344       .  A
C970        C971   1.406       .  A
C971        C972   1.405       .  A
C971        H980   1.082       .  S
C972        C975   1.381       .  A
N973        C974   1.355       .  A
N973        H983   1.044       .  S
C974        C975   1.397       .  A
C975        H981   1.082       .  S
N976        C977   1.357       .  A
N976        H984   1.044       .  S
C977        C978   1.394       .  A
C978        H982   1.082       .  S
C985        N991   1.346   1_554  A
C985        C990   1.384       .  A
C985        C986   1.406   1_554  A
C986        C987   1.405   1_566  A
C986        H997   1.082       .  S
C987        C996   1.381   1_554  A
C987        C988   1.383       .  A
C988        N994   1.346       .  A
C988        C989   1.407       .  A
C989        C990   1.406   1_545  A
C989        H998   1.082       .  S
C990        C993   1.382       .  A
N991        C992   1.357   1_556  A
N991       H1001   1.046       .  S
C992        C993   1.398       .  A
C993        H999   1.082       .  S
N994        C995   1.358       .  A
N994       H1002   1.046       .  S
C995        C996   1.398   1_554  A
C996       H1000   1.082       .  S
C1003      N1009   1.344       .  A
C1003      C1008   1.384       .  A
C1003      C1004   1.404       .  A
C1004      C1005   1.404       .  A
C1004      H1015   1.082       .  S
C1005      C1014   1.379       .  A
C1005      C1006   1.384       .  A
C1006      N1012   1.345       .  A
C1006      C1007   1.405       .  A
C1007      C1008   1.404       .  A
C1007      H1016   1.082       .  S
C1008      C1011   1.379       .  A
N1009      C1010   1.356       .  A
N1009      H1019   1.046       .  S
C1010      C1011   1.397       .  A
C1011      H1017   1.082       .  S
N1012      C1013   1.357       .  A
N1012      H1020   1.046       .  S
C1013      C1014   1.396       .  A
C1014      H1018   1.082       .  S
C1021      N1027   1.341       .  A
C1021      C1026   1.384       .  A
C1021      C1022   1.400       .  A
C1022      C1023   1.399       .  A
C1022      H1033   1.083       .  S
C1023      C1032   1.371       .  A
C1023      C1024   1.384       .  A
C1024      N1030   1.346       .  A
C1024      C1025   1.405       .  A
C1025      C1026   1.405       .  A
C1025      H1034   1.082       .  S
C1026      C1029   1.380       .  A
N1027      C1028   1.355       .  A
N1027      H1037   1.044       .  S
C1028      C1029   1.397       .  A
C1029      H1035   1.082       .  S
N1030      C1031   1.357       .  A
N1030      H1038   1.044       .  S
C1031      C1032   1.394       .  A
C1032      H1036   1.082       .  S
C1039      N1045   1.340       .  A
C1039      C1044   1.384       .  A
C1039      C1040   1.399       .  A
C1040      C1041   1.398       .  A
C1040      H1051   1.083       .  S
C1041      C1050   1.372       .  A
C1041      C1042   1.384       .  A
C1042      N1048   1.345       .  A
C1042      C1043   1.405       .  A
C1043      C1044   1.405       .  A
C1043      H1052   1.082       .  S
C1044      C1047   1.380       .  A
N1045      C1046   1.354       .  A
N1045      H1055   1.044       .  S
C1046      C1047   1.396       .  A
C1047      H1053   1.082       .  S
N1048      C1049   1.356       .  A
N1048      H1056   1.044       .  S
C1049      C1050   1.394       .  A
C1050      H1054   1.082       .  S
N1057      N1058   1.323       .  A
N1057      C1061   1.348       .  A
N1057     Cu1065   2.082       .  S
N1058      C1059   1.341       .  A
N1058     Cu1064   2.062       .  S
C1059      C1060   1.377       .  A
C1059      H1062   1.082       .  S
C1060      C1061   1.385       .  A
C1060      C1108   1.465       .  S
C1061      H1063   1.082       .  S
Cu1064     N1067   2.061       .  S
Cu1065     N1075   2.082       .  S
Cu1066     N1068   2.072       .  S
Cu1066     N1074   2.072       .  S
N1067      N1068   1.319       .  A
N1067      C1071   1.345       .  A
N1068      C1069   1.344       .  A
C1069      C1070   1.386       .  A
C1069      H1072   1.082       .  S
C1070      C1071   1.383       .  A
C1070      C1142   1.472       .  S
C1071      H1073   1.082       .  S
N1074      N1075   1.324       .  A
N1074      C1078   1.342       .  A
N1075      C1076   1.347       .  A
C1076      C1077   1.385       .  A
C1076      H1079   1.082       .  S
C1077      C1078   1.381       .  A
C1077      C2102   1.472       .  S
C1078      H1080   1.081       .  S
N1081      N1082   1.323       .  A
N1081      C1085   1.348       .  A
N1081     Cu1089   2.082       .  S
N1082      C1083   1.342       .  A
N1082     Cu1088   2.067       .  S
C1083      C1084   1.379       .  A
C1083      H1086   1.082       .  S
C1084      C1085   1.384       .  A
C1084      C1118   1.467       .  S
C1085      H1087   1.082       .  S
Cu1088     N1091   2.067       .  S
Cu1089     N1099   2.082       .  S
Cu1090     N1092   2.074       .  S
Cu1090     N1098   2.074       .  S
N1091      N1092   1.320       .  A
N1091      C1095   1.346       .  A
N1092      C1093   1.344       .  A
C1093      C1094   1.386       .  A
C1093      H1096   1.082       .  S
C1094      C1095   1.383       .  A
C1094      C1132   1.474       .  S
C1095      H1097   1.082       .  S
N1098      N1099   1.323       .  A
N1098      C1102   1.343       .  A
N1099      C1100   1.347       .  A
C1100      C1101   1.385       .  A
C1100      H1103   1.082       .  S
C1101      C1102   1.382       .  A
C1101      C2084   1.473       .  S
C1102      H1104   1.082       .  S
N1105      N1106   1.322       .  A
N1105      C1109   1.346       .  A
N1105     Cu1113   2.073       .  S
N1106      C1107   1.343       .  A
N1106     Cu1112   2.067       .  S
C1107      C1108   1.380       .  A
C1107      H1110   1.082       .  S
C1108      C1109   1.381       .  A
C1109      H1111   1.082       .  S
Cu1112     N1115   2.067       .  S
Cu1113     N1123   2.073       .  S
Cu1114     N1116   2.080       .  S
Cu1114     N1122   2.081       .  S
N1115      N1116   1.323       .  A
N1115      C1119   1.343       .  A
N1116      C1117   1.347       .  A
C1117      C1118   1.383       .  A
C1117      H1120   1.082       .  S
C1118      C1119   1.380       .  A
C1119      H1121   1.082       .  S
N1122      N1123   1.321       .  A
N1122      C1126   1.347       .  A
N1123      C1124   1.345       .  A
C1124      C1125   1.385       .  A
C1124      H1127   1.082       .  S
C1125      C1126   1.386       .  A
C1125      C2066   1.478       .  S
C1126      H1128   1.082       .  S
N1129      N1130   1.321       .  A
N1129      C1133   1.350       .  A
N1129     Cu1137   2.095       .  S
N1130      C1131   1.341       .  A
C1131      C1132   1.379       .  A
C1131      H1134   1.082       .  S
C1132      C1133   1.390       .  A
C1133      H1135   1.082       .  S
Cu1136     N1139   2.054       .  S
Cu1137     N1147   2.097   1_556  S
Cu1138     N1140   2.089       .  S
Cu1138     N1146   2.091       .  S
N1139      N1140   1.321       .  A
N1139      C1143   1.341       .  A
N1140      C1141   1.349       .  A
C1141      C1142   1.389       .  A
C1141      H1144   1.082       .  S
C1142      C1143   1.379       .  A
C1143      H1145   1.082       .  S
N1146      C1150   1.348       .  A
N1147      C1148   1.348   1_554  A
C1148      H1151   1.082       .  S
C1149      C1150   1.386       .  A
C1149      C2051   1.484       .  S
C1150      H1152   1.082       .  S
N1153      N1154   1.324       .  A
N1153      C1157   1.346       .  A
N1153     Cu1161   2.076       .  S
N1154      C1155   1.345       .  A
N1154     Cu1160   2.083       .  S
C1155      C1156   1.383       .  A
C1155      H1158   1.082       .  S
C1156      C1157   1.382       .  A
C1156      C1238   1.469       .  S
C1157      H1159   1.082       .  S
Cu1160     N1163   2.082       .  S
Cu1161     N1171   2.075       .  S
Cu1162     N1164   2.071       .  S
Cu1162     N1170   2.071       .  S
N1163      N1164   1.322       .  A
N1163      C1167   1.349       .  A
N1164      C1165   1.342       .  A
C1165      C1166   1.382       .  A
C1165      H1168   1.082       .  S
C1166      C1167   1.387       .  A
C1166      C1214   1.474       .  S
C1167      H1169   1.082       .  S
N1170      N1171   1.321       .  A
N1170      C1174   1.344       .  A
N1171      C1172   1.347       .  A
C1172      C1173   1.385       .  A
C1172      H1175   1.082       .  S
C1173      C1174   1.384       .  A
C1173      C2030   1.475       .  S
C1174      H1176   1.081       .  S
N1177      N1178   1.324       .  A
N1177      C1181   1.347       .  A
N1177     Cu1185   2.078       .  S
N1178      C1179   1.345       .  A
N1178     Cu1184   2.082       .  S
C1179      C1180   1.383       .  A
C1179      H1182   1.082       .  S
C1180      C1181   1.382       .  A
C1180      C1228   1.470       .  S
C1181      H1183   1.082       .  S
Cu1184     N1187   2.080       .  S
Cu1185     N1195   2.078       .  S
Cu1186     N1188   2.066       .  S
Cu1186     N1194   2.066       .  S
N1187      N1188   1.322       .  A
N1187      C1191   1.348       .  A
N1188      C1189   1.342       .  A
C1189      C1190   1.381       .  A
C1189      H1192   1.082       .  S
C1190      C1191   1.386       .  A
C1190      C1204   1.472       .  S
C1191      H1193   1.082       .  S
N1194      N1195   1.321       .  A
N1194      C1198   1.343       .  A
N1195      C1196   1.347       .  A
C1196      C1197   1.385       .  A
C1196      H1199   1.082       .  S
C1197      C1198   1.383       .  A
C1197      C2012   1.475       .  S
C1198      H1200   1.082       .  S
N1201      N1202   1.322       .  A
N1201      C1205   1.348       .  A
N1201     Cu1209   2.079       .  S
N1202      C1203   1.342       .  A
N1202     Cu1208   2.064       .  S
C1203      C1204   1.381       .  A
C1203      H1206   1.082       .  S
C1204      C1205   1.385       .  A
C1205      H1207   1.082       .  S
Cu1208     N1211   2.063       .  S
Cu1209     N1219   2.080       .  S
Cu1210     N1212   2.082       .  S
Cu1210     N1218   2.082       .  S
N1211      N1212   1.321       .  A
N1211      C1215   1.341       .  A
N1212      C1213   1.349       .  A
C1213      C1214   1.387       .  A
C1213      H1216   1.082       .  S
C1214      C1215   1.381       .  A
C1215      H1217   1.082       .  S
N1218      N1219   1.323       .  A
N1218      C1222   1.346       .  A
N1219      C1220   1.346       .  A
C1220      C1221   1.385       .  A
C1220      H1223   1.082       .  S
C1221      C1222   1.384       .  A
C1221      C1994   1.477       .  S
C1222      H1224   1.081       .  S
N1225      N1226   1.322       .  A
N1225      C1229   1.350       .  A
N1225     Cu1233   2.089       .  S
N1226      C1227   1.341       .  A
N1226     Cu1232   2.062       .  S
C1227      C1228   1.378       .  A
C1227      H1230   1.082       .  S
C1228      C1229   1.388       .  A
C1229      H1231   1.082       .  S
Cu1233     N1243   2.091       .  S
Cu1234     N1236   2.086       .  S
N1235      N1236   1.321       .  A
N1235      C1239   1.342       .  A
N1236      C1237   1.349       .  A
C1237      C1238   1.387       .  A
C1237      H1240   1.082       .  S
C1238      C1239   1.379       .  A
C1239      H1241   1.082       .  S
N1242      N1243   1.324       .  A
N1243      C1244   1.348       .  A
C1244      C1245   1.387       .  A
C1244      H1247   1.082       .  S
C1245      C2048   1.483       .  S
C1246      H1248   1.082       .  S
N1249      N1250   1.324       .  A
N1249      C1253   1.348       .  A
N1249     Cu1257   2.083       .  S
N1250      C1251   1.343       .  A
N1250     Cu1256   2.075       .  S
C1251      C1252   1.379       .  A
C1251      H1254   1.082       .  S
C1252      C1253   1.383       .  A
C1252      C1300   1.467       .  S
C1253      H1255   1.082       .  S
Cu1256     N1259   2.074       .  S
Cu1257     N1267   2.083       .  S
Cu1258     N1260   2.066       .  S
Cu1258     N1266   2.066       .  S
N1259      N1260   1.321       .  A
N1259      C1263   1.348       .  A
N1260      C1261   1.342       .  A
C1261      C1262   1.382       .  A
C1261      H1264   1.082       .  S
C1262      C1263   1.386       .  A
C1262      C1334   1.472       .  S
C1263      H1265   1.082       .  S
N1266      N1267   1.322       .  A
N1266      C1270   1.344       .  A
N1267      C1268   1.346       .  A
C1268      C1269   1.386       .  A
C1268      H1271   1.082       .  S
C1269      C1270   1.382       .  A
C1269      C1979   1.474       .  S
C1270      H1272   1.082       .  S
N1273      N1274   1.324       .  A
N1273      C1277   1.346       .  A
N1273     Cu1281   2.080       .  S
N1274      C1275   1.346       .  A
N1274     Cu1280   2.082       .  S
C1275      C1276   1.383       .  A
C1275      H1278   1.082       .  S
C1276      C1277   1.382       .  A
C1276      C1310   1.470       .  S
C1277      H1279   1.082       .  S
Cu1280     N1283   2.080       .  S
Cu1281     N1291   2.080       .  S
Cu1282     N1284   2.070       .  S
Cu1282     N1290   2.070       .  S
N1283      N1284   1.322       .  A
N1283      C1287   1.348       .  A
N1284      C1285   1.343       .  A
C1285      C1286   1.383       .  A
C1285      H1288   1.082       .  S
C1286      C1287   1.385       .  A
C1286      C1324   1.472       .  S
C1287      H1289   1.082       .  S
N1290      N1291   1.322       .  A
N1290      C1294   1.344       .  A
N1291      C1292   1.347       .  A
C1292      C1293   1.386       .  A
C1292      H1295   1.082       .  S
C1293      C1294   1.383       .  A
C1293      C1958   1.476       .  S
C1294      H1296   1.082       .  S
N1297      N1298   1.322       .  A
N1297      C1301   1.348       .  A
N1297     Cu1305   2.074       .  S
N1298      C1299   1.342       .  A
N1298     Cu1304   2.065       .  S
C1299      C1300   1.379       .  A
C1299      H1302   1.082       .  S
C1300      C1301   1.384       .  A
C1301      H1303   1.082       .  S
Cu1304     N1307   2.065       .  S
Cu1305     N1315   2.075       .  S
Cu1306     N1308   2.084       .  S
Cu1306     N1314   2.086       .  S
N1307      N1308   1.322       .  A
N1307      C1311   1.344       .  A
N1308      C1309   1.348       .  A
C1309      C1310   1.386       .  A
C1309      H1312   1.082       .  S
C1310      C1311   1.380       .  A
C1311      H1313   1.082       .  S
N1314      N1315   1.323       .  A
N1314      C1318   1.347       .  A
N1315      C1316   1.345       .  A
C1316      C1317   1.384       .  A
C1316      H1319   1.082       .  S
C1317      C1318   1.386       .  A
C1317      C1997   1.477       .  S
C1318      H1320   1.082       .  S
N1321      N1322   1.321       .  A
N1321      C1325   1.348       .  A
N1321     Cu1329   2.082       .  S
N1322      C1323   1.342       .  A
N1322     Cu1328   2.061       .  S
C1323      C1324   1.381       .  A
C1323      H1326   1.082       .  S
C1324      C1325   1.387       .  A
C1325      H1327   1.082       .  S
Cu1329     N1339   2.084       .  S
Cu1330     N1332   2.081       .  S
N1331      N1332   1.321       .  A
N1331      C1335   1.341       .  A
N1332      C1333   1.349       .  A
C1333      C1334   1.387       .  A
C1333      H1336   1.082       .  S
C1334      C1335   1.380       .  A
C1335      H1337   1.082       .  S
N1338      N1339   1.324       .  A
N1339      C1340   1.347   1_565  A
C1340      C1341   1.385       .  A
C1340      H1343   1.082       .  S
C1341      C1940   1.478       .  S
C1342      H1344   1.082       .  S
N1345      N1346   1.322       .  A
N1345      C1349   1.348       .  A
N1345     Cu1353   2.081       .  S
N1346      C1347   1.344       .  A
N1346     Cu1352   2.075       .  S
C1347      C1348   1.382       .  A
C1347      H1350   1.082       .  S
C1348      C1349   1.385       .  A
C1348      C1406   1.471       .  S
C1349      H1351   1.082       .  S
Cu1352     N1355   2.074       .  S
Cu1353     N1363   2.081       .  S
Cu1354     N1356   2.070       .  S
Cu1354     N1362   2.070       .  S
N1355      N1356   1.322       .  A
N1355      C1359   1.346       .  A
N1356      C1357   1.344       .  A
C1357      C1358   1.383       .  A
C1357      H1360   1.082       .  S
C1358      C1359   1.383       .  A
C1358      C1430   1.471       .  S
C1359      H1361   1.082       .  S
N1362      N1363   1.323       .  A
N1362      C1366   1.345       .  A
N1363      C1364   1.345       .  A
C1364      C1365   1.384       .  A
C1364      H1367   1.082       .  S
C1365      C1366   1.383       .  A
C1365      C1922   1.473       .  S
C1366      H1368   1.082       .  S
N1369      N1370   1.323       .  A
N1369      C1373   1.349       .  A
N1369     Cu1377   2.084       .  S
N1370      C1371   1.342       .  A
N1370     Cu1376   2.071       .  S
C1371      C1372   1.380       .  A
C1371      H1374   1.082       .  S
C1372      C1373   1.385       .  A
C1372      C1396   1.468       .  S
C1373      H1375   1.082       .  S
Cu1376     N1379   2.071       .  S
Cu1377     N1387   2.085       .  S
Cu1378     N1380   2.075       .  S
Cu1378     N1386   2.075       .  S
N1379      N1380   1.321       .  A
N1379      C1383   1.347       .  A
N1380      C1381   1.344       .  A
C1381      C1382   1.385       .  A
C1381      H1384   1.082       .  S
C1382      C1383   1.384       .  A
C1382      C1420   1.474       .  S
C1383      H1385   1.082       .  S
N1386      N1387   1.324       .  A
N1386      C1390   1.346       .  A
N1387      C1388   1.346       .  A
C1388      C1389   1.385       .  A
C1388      H1391   1.082       .  S
C1389      C1390   1.382       .  A
C1389      C1907   1.474       .  S
C1390      H1392   1.082       .  S
N1393      N1394   1.322       .  A
N1393      C1397   1.349       .  A
N1393     Cu1401   2.079       .  S
N1394      C1395   1.342       .  A
C1395      C1396   1.379       .  A
C1395      H1398   1.082       .  S
C1396      C1397   1.385       .  A
C1397      H1399   1.082       .  S
Cu1400     N1403   2.066       .  S
Cu1401     N1411   2.080   1_556  S
Cu1402     N1404   2.088       .  S
Cu1402     N1410   2.089       .  S
N1403      N1404   1.322       .  A
N1403      C1407   1.343       .  A
N1404      C1405   1.350       .  A
C1405      C1406   1.387       .  A
C1405      H1408   1.082       .  S
C1406      C1407   1.379       .  A
C1407      H1409   1.082       .  S
N1410      C1414   1.347       .  A
N1411      C1412   1.346   1_554  A
C1412      H1415   1.082       .  S
C1413      C1414   1.386       .  A
C1413      C1943   1.479       .  S
C1414      H1416   1.082       .  S
N1417      N1418   1.322       .  A
N1417      C1421   1.349       .  A
N1417     Cu1425   2.087       .  S
N1418      C1419   1.342       .  A
N1418     Cu1424   2.060       .  S
C1419      C1420   1.380       .  A
C1419      H1422   1.082       .  S
C1420      C1421   1.388       .  A
C1421      H1423   1.082       .  S
Cu1424     N1427   2.061       .  S
Cu1425     N1435   2.087       .  S
Cu1426     N1428   2.078       .  S
Cu1426     N1434   2.078       .  S
N1427      N1428   1.322       .  A
N1427      C1431   1.343       .  A
N1428      C1429   1.347       .  A
C1429      C1430   1.385       .  A
C1429      H1432   1.082       .  S
C1430      C1431   1.381       .  A
C1431      H1433   1.082       .  S
N1434      N1435   1.323       .  A
N1434      C1438   1.346       .  A
N1435      C1436   1.347       .  A
C1436      C1437   1.386       .  A
C1436      H1439   1.082       .  S
C1437      C1438   1.384       .  A
C1437      C2069   1.478       .  S
C1438      H1440   1.082       .  S
N1441      N1442   1.324       .  A
N1441      C1445   1.348       .  A
N1441     Cu1449   2.084       .  S
N1442      C1443   1.343       .  A
N1442     Cu1448   2.072       .  S
C1443      C1444   1.380       .  A
C1443      H1446   1.082       .  S
C1444      C1445   1.384       .  A
C1444      C1526   1.468       .  S
C1445      H1447   1.082       .  S
Cu1448     N1451   2.071       .  S
Cu1449     N1459   2.083       .  S
Cu1450     N1452   2.064       .  S
Cu1450     N1458   2.064       .  S
N1451      N1452   1.320       .  A
N1451      C1455   1.347       .  A
N1452      C1453   1.342       .  A
C1453      C1454   1.383       .  A
C1453      H1456   1.082       .  S
C1454      C1455   1.385       .  A
C1454      C1502   1.470       .  S
C1455      H1457   1.082       .  S
N1458      N1459   1.322       .  A
N1458      C1462   1.342       .  A
N1459      C1460   1.348       .  A
C1460      C1461   1.386       .  A
C1460      H1463   1.082       .  S
C1461      C1462   1.381       .  A
C1461      C1925   1.474       .  S
C1462      H1464   1.082       .  S
N1465      N1466   1.323       .  A
N1465      C1469   1.348       .  A
N1465     Cu1473   2.080       .  S
N1466      C1467   1.344       .  A
N1466     Cu1472   2.074       .  S
C1467      C1468   1.381       .  A
C1467      H1470   1.082       .  S
C1468      C1469   1.384       .  A
C1468      C1516   1.470       .  S
C1469      H1471   1.082       .  S
Cu1472     N1475   2.073       .  S
Cu1473     N1483   2.079       .  S
Cu1474     N1476   2.072       .  S
Cu1474     N1482   2.072       .  S
N1475      N1476   1.322       .  A
N1475      C1479   1.347       .  A
N1476      C1477   1.342       .  A
C1477      C1478   1.383       .  A
C1477      H1480   1.082       .  S
C1478      C1479   1.384       .  A
C1478      C1492   1.471       .  S
C1479      H1481   1.082       .  S
N1482      N1483   1.322       .  A
N1482      C1486   1.344       .  A
N1483      C1484   1.346       .  A
C1484      C1485   1.384       .  A
C1484      H1487   1.082       .  S
C1485      C1486   1.383       .  A
C1485      C1904   1.474       .  S
C1486      H1488   1.082       .  S
N1489      N1490   1.321       .  A
N1489      C1493   1.349       .  A
N1489     Cu1497   2.079       .  S
N1490      C1491   1.341       .  A
C1491      C1492   1.380       .  A
C1491      H1494   1.082       .  S
C1492      C1493   1.387       .  A
C1493      H1495   1.082       .  S
Cu1496     N1499   2.062       .  S
Cu1498     N1500   2.076       .  S
Cu1498     N1506   2.078       .  S
N1499      N1500   1.321       .  A
N1499      C1503   1.341       .  A
N1500      C1501   1.348       .  A
C1501      C1502   1.386       .  A
C1501      H1504   1.082       .  S
C1502      C1503   1.381       .  A
C1503      H1505   1.082       .  S
N1506      N1507   1.324       .  A
N1506      C1510   1.345       .  A
C1508      H1511   1.082       .  S
C1509      C1510   1.384       .  A
C1509      C1889   1.476       .  S
C1510      H1512   1.082       .  S
N1513      N1514   1.322       .  A
N1513      C1517   1.349       .  A
N1513     Cu1521   2.086       .  S
N1514      C1515   1.342       .  A
N1514     Cu1520   2.060       .  S
C1515      C1516   1.378       .  A
C1515      H1518   1.082       .  S
C1516      C1517   1.387       .  A
C1517      H1519   1.082       .  S
Cu1520     N1523   2.060       .  S
Cu1521     N1531   2.088       .  S
Cu1522     N1524   2.077       .  S
Cu1522     N1530   2.079       .  S
N1523      N1524   1.321       .  A
N1523      C1527   1.341       .  A
N1524      C1525   1.348       .  A
C1525      C1526   1.385       .  A
C1525      H1528   1.082       .  S
C1526      C1527   1.379       .  A
C1527      H1529   1.082       .  S
N1530      N1531   1.323       .  A
N1530      C1534   1.346       .  A
N1531      C1532   1.347       .  A
C1532      C1533   1.386       .  A
C1532      H1535   1.082       .  S
C1533      C1534   1.385       .  A
C1533      C1868   1.479       .  S
C1534      H1536   1.082       .  S
N1537      N1538   1.321       .  A
N1537      C1541   1.340       .  A
N1537     Cu1545   2.054       .  S
N1538      C1539   1.350       .  A
N1538     Cu1544   2.089       .  S
C1539      C1540   1.388       .  A
C1539      H1542   1.082       .  S
C1540      C1541   1.379       .  A
C1540      C1612   1.471       .  S
C1541      H1543   1.082       .  S
Cu1544     N1547   2.091       .  S
Cu1545     N1555   2.054       .  S
Cu1546     N1548   2.078       .  S
Cu1546     N1554   2.075       .  S
N1547      N1548   1.325       .  A
N1547      C1551   1.349       .  A
N1548      C1549   1.343       .  A
C1549      C1550   1.381       .  A
C1549      H1552   1.082       .  S
C1550      C1551   1.384       .  A
C1550      C1598   1.472       .  S
C1551      H1553   1.082       .  S
N1554      N1555   1.320       .  A
N1554      C1558   1.348       .  A
N1555      C1556   1.340       .  A
C1556      C1557   1.381       .  A
C1556      H1559   1.082       .  S
C1557      C1558   1.387       .  A
C1557      C2105   1.472       .  S
C1558      H1560   1.082       .  S
N1561      N1562   1.321       .  A
N1561      C1565   1.341       .  A
N1561     Cu1569   2.058       .  S
N1562      C1563   1.351       .  A
N1562     Cu1568   2.092       .  S
C1563      C1564   1.388       .  A
C1563      H1566   1.082       .  S
C1564      C1565   1.380       .  A
C1564      C1622   1.473       .  S
C1565      H1567   1.082       .  S
Cu1568     N1571   2.094       .  S
Cu1569     N1579   2.057       .  S
Cu1570     N1572   2.077       .  S
Cu1570     N1578   2.074       .  S
N1571      N1572   1.326       .  A
N1571      C1575   1.350       .  A
N1572      C1573   1.343       .  A
C1573      C1574   1.380       .  A
C1573      H1576   1.082       .  S
C1574      C1575   1.385       .  A
C1574      C1588   1.472       .  S
C1575      H1577   1.082       .  S
N1578      N1579   1.320       .  A
N1578      C1582   1.349       .  A
N1579      C1580   1.339       .  A
C1580      C1581   1.381       .  A
C1580      H1583   1.081       .  S
C1581      C1582   1.387       .  A
C1581      C2087   1.472       .  S
C1582      H1584   1.082       .  S
N1585      N1586   1.322       .  A
N1585      C1589   1.350       .  A
N1585     Cu1593   2.085       .  S
N1586      C1587   1.342       .  A
N1586     Cu1592   2.063       .  S
C1587      C1588   1.380       .  A
C1587      H1590   1.082       .  S
C1588      C1589   1.387       .  A
C1589      H1591   1.082       .  S
Cu1592     N1595   2.063       .  S
Cu1593     N1603   2.087       .  S
Cu1594     N1596   2.083       .  S
Cu1594     N1602   2.084       .  S
N1595      N1596   1.321       .  A
N1595      C1599   1.342       .  A
N1596      C1597   1.349       .  A
C1597      C1598   1.387       .  A
C1597      H1600   1.082       .  S
C1598      C1599   1.380       .  A
C1599      H1601   1.082       .  S
N1602      N1603   1.324       .  A
N1602      C1606   1.346       .  A
N1603      C1604   1.347       .  A
C1604      C1605   1.386       .  A
C1604      H1607   1.082       .  S
C1605      C1606   1.385       .  A
C1605      C1850   1.479       .  S
C1606      H1608   1.082       .  S
N1609      N1610   1.321       .  A
N1609      C1613   1.350       .  A
N1609     Cu1617   2.081       .  S
N1610      C1611   1.340       .  A
N1610     Cu1616   2.057       .  S
C1611      C1612   1.380       .  A
C1611      H1614   1.082       .  S
C1612      C1613   1.387       .  A
C1613      H1615   1.082       .  S
Cu1617     N1627   2.083       .  S
Cu1618     N1620   2.082       .  S
Cu1618     N1626   2.084       .  S
N1619      N1620   1.321       .  A
N1619      C1623   1.341       .  A
N1620      C1621   1.350       .  A
C1621      C1622   1.387       .  A
C1621      H1624   1.082       .  S
C1622      C1623   1.381       .  A
C1623      H1625   1.082       .  S
N1626      C1630   1.347       .  A
N1627      C1628   1.346       .  A
C1628      C1629   1.385       .  A
C1628      H1631   1.082       .  S
C1629      C1886   1.478       .  S
C1630      H1632   1.082       .  S
N1633      N1634   1.322       .  A
N1633      C1637   1.342       .  A
N1633     Cu1641   2.066       .  S
N1634      C1635   1.346       .  A
N1634     Cu1640   2.071       .  S
C1635      C1636   1.383       .  A
C1635      H1638   1.082       .  S
C1636      C1637   1.381       .  A
C1636      C1718   1.467       .  S
C1637      H1639   1.082       .  S
Cu1640     N1643   2.071       .  S
Cu1641     N1651   2.066       .  S
Cu1642     N1644   2.088       .  S
Cu1642     N1650   2.088       .  S
N1643      N1644   1.323       .  A
N1643      C1647   1.346       .  A
N1644      C1645   1.346       .  A
C1645      C1646   1.385       .  A
C1645      H1648   1.082       .  S
C1646      C1647   1.382       .  A
C1646      C1684   1.473       .  S
C1647      H1649   1.082       .  S
N1650      N1651   1.322       .  A
N1650      C1654   1.348       .  A
N1651      C1652   1.343       .  A
C1652      C1653   1.383       .  A
C1652      H1655   1.082       .  S
C1653      C1654   1.387       .  A
C1653      C1961   1.477       .  S
C1654      H1656   1.082       .  S
N1657      N1658   1.324       .  A
N1657      C1661   1.346       .  A
N1657     Cu1665   2.080       .  S
N1658      C1659   1.346       .  A
N1658     Cu1664   2.078       .  S
C1659      C1660   1.382       .  A
C1659      H1662   1.082       .  S
C1660      C1661   1.383       .  A
C1660      C1694   1.471       .  S
C1661      H1663   1.082       .  S
Cu1664     N1667   2.077       .  S
Cu1665     N1675   2.079       .  S
Cu1666     N1668   2.060       .  S
Cu1666     N1674   2.060       .  S
N1667      N1668   1.321       .  A
N1667      C1671   1.347       .  A
N1668      C1669   1.341       .  A
C1669      C1670   1.380       .  A
C1669      H1672   1.082       .  S
C1670      C1671   1.385       .  A
C1670      C1708   1.468       .  S
C1671      H1673   1.082       .  S
N1674      N1675   1.322       .  A
N1674      C1678   1.343       .  A
N1675      C1676   1.346       .  A
C1676      C1677   1.386       .  A
C1676      H1679   1.082       .  S
C1677      C1678   1.381       .  A
C1677      C1976   1.472       .  S
C1678      H1680   1.082       .  S
N1681      N1682   1.322       .  A
N1681      C1685   1.348       .  A
N1681     Cu1689   2.086       .  S
N1682      C1683   1.343       .  A
N1682     Cu1688   2.061       .  S
C1683      C1684   1.380       .  A
C1683      H1686   1.082       .  S
C1684      C1685   1.387       .  A
C1685      H1687   1.082       .  S
Cu1688     N1691   2.061       .  S
Cu1689     N1699   2.086       .  S
Cu1690     N1692   2.080       .  S
Cu1690     N1698   2.081       .  S
N1691      N1692   1.322       .  A
N1691      C1695   1.344       .  A
N1692      C1693   1.347       .  A
C1693      C1694   1.385       .  A
C1693      H1696   1.082       .  S
C1694      C1695   1.381       .  A
C1695      H1697   1.082       .  S
N1698      N1699   1.323       .  A
N1698      C1702   1.346       .  A
N1699      C1700   1.347       .  A
C1700      C1701   1.386       .  A
C1700      H1703   1.082       .  S
C1701      C1702   1.385       .  A
C1701      C1871   1.479       .  S
C1702      H1704   1.082       .  S
N1705      N1706   1.321       .  A
N1705      C1709   1.348       .  A
N1705     Cu1713   2.075       .  S
N1706      C1707   1.341       .  A
C1707      C1708   1.380       .  A
C1707      H1710   1.082       .  S
C1708      C1709   1.385       .  A
C1709      H1711   1.082       .  S
Cu1712     N1715   2.058       .  S
Cu1714     N1716   2.073       .  S
Cu1714     N1722   2.075       .  S
N1715      N1716   1.321       .  A
N1715      C1719   1.340       .  A
N1716      C1717   1.347       .  A
C1717      C1718   1.385       .  A
C1717      H1720   1.082       .  S
C1718      C1719   1.379       .  A
C1719      H1721   1.082       .  S
N1722      N1723   1.323       .  A
N1722      C1726   1.345       .  A
C1724      H1727   1.082       .  S
C1725      C1726   1.384       .  A
C1725      C1832   1.474       .  S
C1726      H1728   1.082       .  S
N1729      N1730   1.322       .  A
N1729      C1733   1.343       .  A
N1729     Cu1737   2.071       .  S
N1730      C1731   1.347       .  A
N1730     Cu1736   2.073       .  S
C1731      C1732   1.383       .  A
C1731      H1734   1.082       .  S
C1732      C1733   1.382       .  A
C1732      C1814   1.470       .  S
C1733      H1735   1.082       .  S
Cu1736     N1739   2.073       .  S
Cu1737     N1747   2.070       .  S
Cu1738     N1740   2.083       .  S
Cu1738     N1746   2.084       .  S
N1739      N1740   1.323       .  A
N1739      C1743   1.344       .  A
N1740      C1741   1.347       .  A
C1741      C1742   1.384       .  A
C1741      H1744   1.082       .  S
C1742      C1743   1.381       .  A
C1742      C1790   1.468       .  S
C1743      H1745   1.082       .  S
N1746      N1747   1.322       .  A
N1746      C1750   1.346       .  A
N1747      C1748   1.345       .  A
C1748      C1749   1.383       .  A
C1748      H1751   1.082       .  S
C1749      C1750   1.386       .  A
C1749      C2033   1.476       .  S
C1750      H1752   1.082       .  S
N1753      N1754   1.322       .  A
N1753      C1757   1.342       .  A
N1753     Cu1761   2.073       .  S
N1754      C1755   1.348       .  A
N1754     Cu1760   2.075       .  S
C1755      C1756   1.384       .  A
C1755      H1758   1.082       .  S
C1756      C1757   1.383       .  A
C1756      C1804   1.472       .  S
C1757      H1759   1.082       .  S
Cu1760     N1763   2.076       .  S
Cu1761     N1771   2.073       .  S
Cu1762     N1764   2.077       .  S
Cu1762     N1770   2.077       .  S
N1763      N1764   1.323       .  A
N1763      C1767   1.344       .  A
N1764      C1765   1.346       .  A
C1765      C1766   1.382       .  A
C1765      H1768   1.082       .  S
C1766      C1767   1.381       .  A
C1766      C1780   1.465       .  S
C1767      H1769   1.082       .  S
N1770      N1771   1.322       .  A
N1770      C1774   1.346       .  A
N1771      C1772   1.345       .  A
C1772      C1773   1.384       .  A
C1772      H1775   1.082       .  S
C1773      C1774   1.385       .  A
C1773      C2015   1.475       .  S
C1774      H1776   1.082       .  S
N1777      N1778   1.322       .  A
N1777      C1781   1.347       .  A
N1777     Cu1785   2.074       .  S
N1778      C1779   1.342       .  A
N1778     Cu1784   2.065       .  S
C1779      C1780   1.379       .  A
C1779      H1782   1.082       .  S
C1780      C1781   1.384       .  A
C1781      H1783   1.082       .  S
Cu1784     N1787   2.064       .  S
Cu1785     N1795   2.075       .  S
Cu1786     N1788   2.078       .  S
Cu1786     N1794   2.079       .  S
N1787      N1788   1.322       .  A
N1787      C1791   1.342       .  A
N1788      C1789   1.348       .  A
C1789      C1790   1.385       .  A
C1789      H1792   1.082       .  S
C1790      C1791   1.380       .  A
C1791      H1793   1.082       .  S
N1794      N1795   1.322       .  A
N1794      C1798   1.346       .  A
N1795      C1796   1.346       .  A
C1796      C1797   1.385       .  A
C1796      H1799   1.082       .  S
C1797      C1798   1.385       .  A
C1797      C1853   1.477       .  S
C1798      H1800   1.082       .  S
N1801      N1802   1.322       .  A
N1801      C1805   1.349       .  A
N1801     Cu1809   2.085       .  S
N1802      C1803   1.341       .  A
N1802     Cu1808   2.060       .  S
C1803      C1804   1.380       .  A
C1803      H1806   1.082       .  S
C1804      C1805   1.387       .  A
C1805      H1807   1.082       .  S
Cu1809     N1819   2.086       .  S
Cu1810     N1812   2.080       .  S
Cu1810     N1818   2.081       .  S
N1811      N1812   1.321       .  A
N1811      C1815   1.342       .  A
N1812      C1813   1.348       .  A
C1813      C1814   1.386       .  A
C1813      H1816   1.082       .  S
C1814      C1815   1.380       .  A
C1815      H1817   1.082       .  S
N1818      C1822   1.345       .  A
N1819      C1820   1.347       .  A
C1820      C1821   1.385       .  A
C1820      H1823   1.082       .  S
C1821      C1835   1.477       .  S
C1822      H1824   1.082       .  S
C1825      N1831   1.343       .  A
C1825      C1830   1.384       .  A
C1825      C1826   1.403       .  A
C1826      C1827   1.403       .  A
C1826      H1837   1.082       .  S
C1827      C1836   1.378   1_455  A
C1827      C1828   1.384       .  A
C1828      N1834   1.344   1_455  A
C1828      C1829   1.404       .  A
C1829      C1830   1.403       .  A
C1829      H1838   1.082       .  S
C1830      C1833   1.378       .  A
N1831      C1832   1.356       .  A
N1831      H1841   1.046       .  S
C1832      C1833   1.396       .  A
C1833      H1839   1.082       .  S
N1834      C1835   1.356       .  A
N1834      H1842   1.046       .  S
C1835      C1836   1.396       .  A
C1836      H1840   1.082       .  S
C1843      N1849   1.344       .  A
C1843      C1848   1.384       .  A
C1843      C1844   1.405       .  A
C1844      C1845   1.404       .  A
C1844      H1855   1.082       .  S
C1845      C1854   1.380       .  A
C1845      C1846   1.384       .  A
C1846      N1852   1.344       .  A
C1846      C1847   1.404       .  A
C1847      C1848   1.403       .  A
C1847      H1856   1.082       .  S
C1848      C1851   1.380       .  A
N1849      C1850   1.357       .  A
N1849      H1859   1.046       .  S
C1850      C1851   1.397       .  A
C1851      H1857   1.082       .  S
N1852      C1853   1.356       .  A
N1852      H1860   1.046       .  S
C1853      C1854   1.397       .  A
C1854      H1858   1.082       .  S
C1861      N1867   1.344       .  A
C1861      C1866   1.384       .  A
C1861      C1862   1.404       .  A
C1862      C1863   1.404       .  A
C1862      H1873   1.082       .  S
C1863      C1872   1.379       .  A
C1863      C1864   1.384       .  A
C1864      N1870   1.345       .  A
C1864      C1865   1.405       .  A
C1865      C1866   1.405       .  A
C1865      H1874   1.082       .  S
C1866      C1869   1.380       .  A
N1867      C1868   1.356       .  A
N1867      H1877   1.046       .  S
C1868      C1869   1.398       .  A
C1869      H1875   1.082       .  S
N1870      C1871   1.357       .  A
N1870      H1878   1.046       .  S
C1871      C1872   1.397       .  A
C1872      H1876   1.082       .  S
C1879      N1885   1.343       .  A
C1879      C1884   1.384       .  A
C1879      C1880   1.403       .  A
C1880      C1881   1.402   1_655  A
C1880      H1891   1.082       .  S
C1881      C1890   1.377       .  A
C1881      C1882   1.384       .  A
C1882      N1888   1.345       .  A
C1882      C1883   1.406   1_455  A
C1883      C1884   1.405       .  A
C1883      H1892   1.082       .  S
C1884      C1887   1.381       .  A
N1885      C1886   1.356       .  A
N1885      H1895   1.046       .  S
C1886      C1887   1.398       .  A
C1887      H1893   1.082       .  S
N1888      C1889   1.357       .  A
N1888      H1896   1.046       .  S
C1889      C1890   1.395       .  A
C1890      H1894   1.082       .  S
C1897      N1903   1.342       .  A
C1897      C1902   1.384       .  A
C1897      C1898   1.402       .  A
C1898      C1899   1.401       .  A
C1898      H1909   1.082       .  S
C1899      C1908   1.376       .  A
C1899      C1900   1.384       .  A
C1900      N1906   1.345       .  A
C1900      C1901   1.405       .  A
C1901      C1902   1.405       .  A
C1901      H1910   1.082       .  S
C1902      C1905   1.380       .  A
N1903      C1904   1.355       .  A
N1903      H1913   1.044       .  S
C1904      C1905   1.397       .  A
C1905      H1911   1.082       .  S
N1906      C1907   1.357       .  A
N1906      H1914   1.044       .  S
C1907      C1908   1.394       .  A
C1908      H1912   1.082       .  S
C1915      N1921   1.343       .  A
C1915      C1920   1.384       .  A
C1915      C1916   1.402       .  A
C1916      C1917   1.401       .  A
C1916      H1927   1.082       .  S
C1917      C1926   1.375       .  A
C1917      C1918   1.384       .  A
C1918      N1924   1.345       .  A
C1918      C1919   1.404       .  A
C1919      C1920   1.404       .  A
C1919      H1928   1.082       .  S
C1920      C1923   1.378       .  A
N1921      C1922   1.355       .  A
N1921      H1931   1.044       .  S
C1922      C1923   1.396       .  A
C1923      H1929   1.082       .  S
N1924      C1925   1.356       .  A
N1924      H1932   1.044       .  S
C1925      C1926   1.395       .  A
C1926      H1930   1.082       .  S
C1933      N1939   1.345       .  A
C1933      C1938   1.384       .  A
C1933      C1934   1.405       .  A
C1934      C1935   1.404       .  A
C1934      H1945   1.082       .  S
C1935      C1944   1.380       .  A
C1935      C1936   1.384       .  A
C1936      N1942   1.344       .  A
C1936      C1937   1.405       .  A
C1937      C1938   1.404       .  A
C1937      H1946   1.082       .  S
C1938      C1941   1.379       .  A
N1939      C1940   1.357       .  A
N1939      H1949   1.046       .  S
C1940      C1941   1.397       .  A
C1941      H1947   1.082       .  S
N1942      C1943   1.357       .  A
N1942      H1950   1.046       .  S
C1943      C1944   1.397       .  A
C1944      H1948   1.082       .  S
C1951      N1957   1.343       .  A
C1951      C1956   1.384       .  A
C1951      C1952   1.403       .  A
C1952      C1953   1.402       .  A
C1952      H1963   1.082       .  S
C1953      C1962   1.377       .  A
C1953      C1954   1.384       .  A
C1954      N1960   1.345       .  A
C1954      C1955   1.405       .  A
C1955      C1956   1.404       .  A
C1955      H1964   1.082       .  S
C1956      C1959   1.379       .  A
N1957      C1958   1.356       .  A
N1957      H1967   1.044       .  S
C1958      C1959   1.396       .  A
C1959      H1965   1.082       .  S
N1960      C1961   1.357       .  A
N1960      H1968   1.044       .  S
C1961      C1962   1.396       .  A
C1962      H1966   1.082       .  S
C1969      N1975   1.343       .  A
C1969      C1974   1.384       .  A
C1969      C1970   1.404       .  A
C1970      C1971   1.403       .  A
C1970      H1981   1.082       .  S
C1971      C1980   1.379       .  A
C1971      C1972   1.384       .  A
C1972      N1978   1.342       .  A
C1972      C1973   1.402       .  A
C1973      C1974   1.401       .  A
C1973      H1982   1.082       .  S
C1974      C1977   1.377       .  A
N1975      C1976   1.357       .  A
N1975      H1985   1.044       .  S
C1976      C1977   1.394       .  A
C1977      H1983   1.082       .  S
N1978      C1979   1.355       .  A
N1978      H1986   1.044       .  S
C1979      C1980   1.397       .  A
C1980      H1984   1.082       .  S
C1987      N1993   1.344       .  A
C1987      C1992   1.384       .  A
C1987      C1988   1.404       .  A
C1988      C1989   1.403       .  A
C1988      H1999   1.082       .  S
C1989      C1998   1.379       .  A
C1989      C1990   1.384       .  A
C1990      N1996   1.344       .  A
C1990      C1991   1.404       .  A
C1991      C1992   1.404       .  A
C1991      H2000   1.082       .  S
C1992      C1995   1.379       .  A
N1993      C1994   1.356       .  A
N1993      H2003   1.046       .  S
C1994      C1995   1.397       .  A
C1995      H2001   1.082       .  S
N1996      C1997   1.356       .  A
N1996      H2004   1.046       .  S
C1997      C1998   1.397       .  A
C1998      H2002   1.082       .  S
C2005      N2011   1.345       .  A
C2005      C2010   1.384       .  A
C2005      C2006   1.405       .  A
C2006      C2007   1.404       .  A
C2006      H2017   1.082       .  S
C2007      C2016   1.379       .  A
C2007      C2008   1.384       .  A
C2008      N2014   1.343       .  A
C2008      C2009   1.402       .  A
C2009      C2010   1.401       .  A
C2009      H2018   1.082       .  S
C2010      C2013   1.376       .  A
N2011      C2012   1.357       .  A
N2011      H2021   1.044       .  S
C2012      C2013   1.395       .  A
C2013      H2019   1.082       .  S
N2014      C2015   1.355       .  A
N2014      H2022   1.044       .  S
C2015      C2016   1.397       .  A
C2016      H2020   1.082       .  S
C2023      N2029   1.341       .  A
C2023      C2028   1.384       .  A
C2023      C2024   1.402       .  A
C2024      C2025   1.400       .  A
C2024      H2035   1.082       .  S
C2025      C2034   1.377       .  A
C2025      C2026   1.384       .  A
C2026      N2032   1.344       .  A
C2026      C2027   1.406       .  A
C2027      C2028   1.405       .  A
C2027      H2036   1.082       .  S
C2028      C2031   1.381       .  A
N2029      C2030   1.355       .  A
N2029      H2039   1.044       .  S
C2030      C2031   1.397       .  A
C2031      H2037   1.082       .  S
N2032      C2033   1.357       .  A
N2032      H2040   1.044       .  S
C2033      C2034   1.394       .  A
C2034      H2038   1.082       .  S
C2041      N2047   1.346       .  A
C2041      C2046   1.384       .  A
C2041      C2042   1.406       .  A
C2042      C2043   1.405   1_565  A
C2042      H2053   1.082       .  S
C2043      C2052   1.381       .  A
C2043      C2044   1.383       .  A
C2044      N2050   1.346       .  A
C2044      C2045   1.407       .  A
C2045      C2046   1.406   1_545  A
C2045      H2054   1.082       .  S
C2046      C2049   1.382       .  A
N2047      C2048   1.357       .  A
N2047      H2057   1.046       .  S
C2048      C2049   1.398       .  A
C2049      H2055   1.082       .  S
N2050      C2051   1.358       .  A
N2050      H2058   1.046       .  S
C2051      C2052   1.398       .  A
C2052      H2056   1.082       .  S
C2059      N2065   1.344       .  A
C2059      C2064   1.384       .  A
C2059      C2060   1.404       .  A
C2060      C2061   1.404       .  A
C2060      H2071   1.082       .  S
C2061      C2070   1.379       .  A
C2061      C2062   1.384       .  A
C2062      N2068   1.345       .  A
C2062      C2063   1.405       .  A
C2063      C2064   1.404       .  A
C2063      H2072   1.082       .  S
C2064      C2067   1.379       .  A
N2065      C2066   1.356       .  A
N2065      H2075   1.046       .  S
C2066      C2067   1.397       .  A
C2067      H2073   1.082       .  S
N2068      C2069   1.357       .  A
N2068      H2076   1.046       .  S
C2069      C2070   1.396       .  A
C2070      H2074   1.082       .  S
C2077      N2083   1.341       .  A
C2077      C2082   1.384       .  A
C2077      C2078   1.400       .  A
C2078      C2079   1.399       .  A
C2078      H2089   1.083       .  S
C2079      C2088   1.371       .  A
C2079      C2080   1.384       .  A
C2080      N2086   1.346       .  A
C2080      C2081   1.405       .  A
C2081      C2082   1.405       .  A
C2081      H2090   1.082       .  S
C2082      C2085   1.380       .  A
N2083      C2084   1.355       .  A
N2083      H2093   1.044       .  S
C2084      C2085   1.397       .  A
C2085      H2091   1.082       .  S
N2086      C2087   1.357       .  A
N2086      H2094   1.044       .  S
C2087      C2088   1.394       .  A
C2088      H2092   1.082       .  S
C2095      N2101   1.340       .  A
C2095      C2100   1.384       .  A
C2095      C2096   1.399       .  A
C2096      C2097   1.398       .  A
C2096      H2107   1.083       .  S
C2097      C2106   1.372       .  A
C2097      C2098   1.384       .  A
C2098      N2104   1.345       .  A
C2098      C2099   1.405       .  A
C2099      C2100   1.405       .  A
C2099      H2108   1.082       .  S
C2100      C2103   1.380       .  A
N2101      C2102   1.355       .  A
N2101      H2111   1.044       .  S
C2102      C2103   1.397       .  A
C2103      H2109   1.082       .  S
N2104      C2105   1.356       .  A
N2104      H2112   1.044       .  S
C2105      C2106   1.394       .  A
C2106      H2110   1.082       .  S
