geometry optimzed in LAMMPS
_audit_creation_date              2020-12-01 
_audit_creation_method            'lammps2cif' 
_symmetry_space_group_name_H-M    'P1' 
_symmetry_Int_Tables_number       1 
_symmetry_cell_setting            triclinic 
loop_ 
_symmetry_equiv_pos_as_xyz 
  x,y,z 
_cell_length_a                    39.40843058 
_cell_length_b                    39.24448778972371 
_cell_length_c                    39.3886643162154 
_cell_angle_alpha                 90.22457107981845 
_cell_angle_beta                  89.91583863416186 
_cell_angle_gamma                 89.88957141254859 
loop_ 
_atom_site_label 
_atom_site_type_symbol 
_atom_site_fract_x 
_atom_site_fract_y 
_atom_site_fract_z 
_atom_site_charge 
C1          C  0.18071119  0.82345109  0.52733557     0.79800
N2          N  0.15685647  0.84850319  0.52660780    -0.78500
C3          C  0.14077224  0.85597688  0.49685452     0.82200
N4          N  0.14831641  0.83775930  0.46812777    -0.78500
C5          C  0.17132141  0.81183306  0.46957340     0.82300
N6          N  0.18730474  0.80538064  0.49900464    -0.80200
C7          C  0.93045155  0.07633712  0.52946820     0.79800
N8          N  0.95596187  0.05286669  0.53051628    -0.78500
C9          C  0.96884662  0.03997489  0.50084723     0.82200
N10         N  0.95642113  0.05102591  0.47048556    -0.78500
C11         C  0.93107344  0.07455408  0.46997598     0.82300
N12         N  0.91834267  0.08674954  0.49932499    -0.80200
C13         C  0.92846809  0.82484139  0.52892199     0.79800
N14         N  0.95368993  0.84846680  0.52805998    -0.78500
C15         C  0.96362341  0.86186983  0.49768360     0.82200
N16         N  0.94843914  0.85119887  0.46837283    -0.78500
C17         C  0.92299581  0.82780777  0.46971272     0.82300
N18         N  0.91341314  0.81488387  0.49985459    -0.80200
C19         C  0.53075000  0.81612179  0.13287511     0.79800
N20         N  0.56057400  0.80216021  0.14199749    -0.78500
C21         C  0.58943767  0.80931908  0.12523201     0.82200
N22         N  0.58884563  0.83088359  0.09830702    -0.78500
C23         C  0.55877289  0.84497529  0.08834694     0.82300
N24         N  0.52961246  0.83745602  0.10564548    -0.80200
C25         C  0.93400242  0.40869502  0.12288680     0.79800
N26         N  0.92141037  0.43808410  0.13526179    -0.78500
C27         C  0.93510937  0.46830843  0.12713014     0.82200
N28         N  0.96213419  0.46938941  0.10545467    -0.78500
C29         C  0.97519014  0.43965621  0.09250004     0.82300
N30         N  0.96094463  0.40921258  0.10127287    -0.80200
C31         C  0.93722224  0.40854725  0.87780795     0.79800
N32         N  0.95948288  0.40841970  0.90425936    -0.78500
C33         C  0.97372866  0.43841459  0.91481329     0.82200
N34         N  0.96528275  0.46815766  0.89903441    -0.78500
C35         C  0.94279666  0.46786771  0.87286532     0.82300
N36         N  0.92927426  0.43810820  0.86256222    -0.80200
C37         C  0.58846351  0.05238838  0.86805221     0.79800
N38         N  0.58875665  0.02934654  0.89384025    -0.78500
C39         C  0.55876492  0.01838485  0.90743048     0.82200
N40         N  0.52876336  0.03083736  0.89536449    -0.78500
C41         C  0.52894708  0.05378060  0.86960775     0.82300
N42         N  0.55860078  0.06418674  0.85630210    -0.80200
C43         C  0.19048116  0.41355879  0.87687419     0.79800
N44         N  0.19647501  0.44287740  0.86038260    -0.78500
C45         C  0.18030884  0.47190096  0.86890982     0.82200
N46         N  0.15750336  0.47189319  0.89491073    -0.78500
C47         C  0.15100432  0.44236341  0.91197021     0.82300
N48         N  0.16743970  0.41298591  0.90274143    -0.80200
C49         C  0.52786000  0.80540642  0.87028924     0.79800
N50         N  0.55764927  0.79260730  0.85934535    -0.78500
C51         C  0.58733857  0.80271474  0.87293982     0.82200
N52         N  0.58745934  0.82681102  0.89796832    -0.78500
C53         C  0.55741373  0.84004568  0.90955815     0.82300
N54         N  0.52747687  0.82915508  0.89566676    -0.80200
C55         C  0.08688648  0.31147374  0.37850216     0.79800
N56         N  0.08849035  0.33595833  0.40320630    -0.78500
C57         C  0.05949416  0.35233936  0.41351566     0.82200
N58         N  0.02917214  0.34415425  0.39885403    -0.78500
C59         C  0.02806464  0.31982436  0.37418407     0.82300
N60         N  0.05671349  0.30388776  0.36444163    -0.80200
O61         O  0.33779821  0.23192695  0.21932472    -0.88800
C62         C  0.23931485  0.19878510  0.22487103     0.87200
Mg63       Mg  0.37835407  0.19846922  0.20268448     1.58100
O64         O  0.28069752  0.21654098  0.30234656    -0.88500
O65         O  0.32125202  0.26954139  0.25672494    -0.75800
C66         C  0.36766021  0.06776942  0.30410516     0.92300
O67         O  0.30178807  0.17546437  0.17199999    -0.75700
O68         O  0.37550364  0.07563394  0.27389007    -0.83200
Mg69       Mg  0.29486539  0.23237021  0.18592000     1.58000
C70         C  0.26772494  0.13935756  0.37616684     0.92200
O71         O  0.28572207  0.28934538  0.19318718    -0.81400
H72         H  0.30381672  0.24787252  0.33506942    -0.06800
C73         C  0.28073077  0.11558035  0.27242243     0.87200
O74         O  0.39616826  0.19124150  0.25798860    -0.75900
O75         O  0.26278855  0.21924617  0.22854256    -0.88700
O76         O  0.25526511  0.16550995  0.36179800    -0.81500
C77         C  0.19416468  0.23809147  0.30999724     0.92300
C78         C  0.25822909  0.30332855  0.20257924     0.92200
Mg79       Mg  0.33107382  0.14224855  0.32339742     1.58000
O80         O  0.34640344  0.08540315  0.32121371    -0.81400
O81         O  0.32237138  0.19951442  0.33458809    -0.75700
O82         O  0.20961291  0.25301888  0.28589861    -0.81500
O83         O  0.33007995  0.24926019  0.14421874    -0.83200
O84         O  0.41340412  0.11970990  0.22122140    -0.81500
C85         C  0.30207337  0.22249743  0.32443548     0.86600
O86         O  0.36188777  0.15350781  0.27940628    -0.88700
O87         O  0.28749631  0.14034596  0.29050966    -0.88800
O88         O  0.30213315  0.10390199  0.25129415    -0.75800
Mg89       Mg  0.26504023  0.25672553  0.26870155     1.58000
O90         O  0.20399446  0.20949914  0.32137307    -0.83200
H91         H  0.36890724  0.26819111  0.23680772    -0.06900
O92         O  0.34228133  0.15749299  0.20528649    -0.88500
H93         H  0.31990614  0.12690568  0.17130016    -0.06800
H94         H  0.39993113  0.17367917  0.30631862    -0.07000
C95         C  0.32150959  0.15206941  0.18244272     0.86600
C96         C  0.34392352  0.25687745  0.23743477     0.87200
C97         C  0.38654334  0.17257524  0.28240268     0.87200
H98         H  0.25588471  0.10407115  0.27412357    -0.06900
O99         O  0.23000819  0.17953645  0.24899262    -0.76000
Mg100      Mg  0.35763936  0.11666325  0.23839150     1.58000
H101        H  0.22682615  0.19683121  0.20052243    -0.06900
C102        C  0.35801525  0.23684028  0.13393637     0.92200
O103        O  0.41818679  0.16137928  0.18361512    -0.83200
C104        C  0.42787435  0.13303533  0.19560912     0.92300
O105        O  0.24535977  0.29579425  0.23112490    -0.83200
Mg106      Mg  0.24624972  0.17392741  0.30497276     1.58200
O107        O  0.36914311  0.20921379  0.14635023    -0.81500
O108        O  0.29595043  0.12713536  0.36637224    -0.83200
C109        C  0.43911065  0.95895244  0.37175351     0.79800
N110        N  0.42601280  0.92900593  0.36152983    -0.78500
C111        C  0.43606314  0.89932900  0.37520579     0.82200
N112        N  0.46026029  0.89921858  0.39996886    -0.78500
C113        C  0.47424665  0.92944402  0.41041765     0.82300
N114        N  0.46337269  0.95936182  0.39636019    -0.80200
O115        O  0.32643909  0.72663786  0.29780956    -0.88800
C116        C  0.23167599  0.71951743  0.25622127     0.87200
Mg117      Mg  0.36893365  0.74280734  0.26679056     1.58100
O118        O  0.27364356  0.64272779  0.27636771    -0.88500
O119        O  0.30839100  0.68799906  0.33309096    -0.75800
C120        C  0.36638204  0.63986581  0.13537921     0.92300
O121        O  0.29565099  0.77382112  0.23794305    -0.75700
O122        O  0.37531117  0.66982277  0.14376582    -0.83200
Mg123      Mg  0.28338942  0.76063582  0.29385731     1.58000
C124        C  0.26690452  0.56645808  0.20066969     0.92200
O125        O  0.26587081  0.75610419  0.34899762    -0.81400
H126        H  0.29400819  0.61069746  0.31009952    -0.06800
C127        C  0.27795122  0.67144566  0.17751079     0.87200
O128        O  0.38808113  0.68746285  0.26109534    -0.75900
O129        O  0.25410800  0.71699573  0.27794240    -0.88700
O130        O  0.25163805  0.58117367  0.22511317    -0.81500
C131        C  0.18731946  0.63461646  0.29427541     0.92300
C132        C  0.24067784  0.74120895  0.36251635     0.92200
Mg133      Mg  0.32764495  0.62108470  0.20732963     1.58000
O134        O  0.34365410  0.62385919  0.15174219    -0.81400
O135        O  0.31643322  0.60982627  0.26361364    -0.75700
O136        O  0.19891298  0.66342629  0.30304780    -0.81500
O137        O  0.31716134  0.80260226  0.31466918    -0.83200
O138        O  0.40946963  0.72379557  0.19092978    -0.81500
C139        C  0.29436487  0.62064726  0.28454533     0.86600
O140        O  0.35687397  0.66558465  0.22078959    -0.88700
O141        O  0.28325943  0.65299524  0.20220833    -0.88800
O142        O  0.30001473  0.69266143  0.16751261    -0.75800
Mg143      Mg  0.25396835  0.67636640  0.31465383     1.58000
O144        O  0.19922445  0.61921280  0.26852088    -0.83200
H145        H  0.35513308  0.70968084  0.33609337    -0.06900
O146        O  0.33619922  0.73887652  0.22337327    -0.88500
H147        H  0.31730026  0.77319786  0.19103472    -0.06800
H148        H  0.39369816  0.63899594  0.24354333    -0.07000
C149        C  0.31660786  0.76230753  0.21619647     0.86600
C150        C  0.33115631  0.70842458  0.32284921     0.87200
C151        C  0.38014282  0.66288242  0.24158505     0.87200
H152        H  0.25384844  0.66992248  0.16452441    -0.06900
O153        O  0.22334399  0.69419272  0.23776803    -0.76000
Mg154      Mg  0.35455973  0.70592531  0.18369769     1.58000
H155        H  0.21890605  0.74366884  0.25282615    -0.06900
C156        C  0.34620063  0.81049159  0.30341155     0.92200
O157        O  0.41097828  0.76195981  0.23267532    -0.83200
C158        C  0.42194440  0.75043645  0.20454346     0.92300
O159        O  0.23159798  0.71165352  0.35337776    -0.83200
Mg160      Mg  0.24095708  0.63781053  0.23336173     1.58200
O161        O  0.35566527  0.79870987  0.27485746    -0.81500
O162        O  0.29559325  0.57671466  0.19030748    -0.83200
O163        O  0.76433876  0.21033959  0.21081710    -0.88800
C164        C  0.80550970  0.11464766  0.21837885     0.87200
Mg165      Mg  0.79497951  0.25274108  0.19489050     1.58100
O166        O  0.78602923  0.15937904  0.29402021    -0.88500
O167        O  0.72850230  0.19293161  0.24891375    -0.75800
C168        C  0.92541879  0.25296549  0.29620154     0.92300
O169        O  0.82450037  0.17926799  0.16472182    -0.75700
O170        O  0.91551831  0.26386260  0.26765102    -0.83200
Mg171      Mg  0.76821454  0.16722196  0.17726704     1.58000
C172        C  0.86290958  0.15145665  0.36772560     0.92200
O173        O  0.71274714  0.15054063  0.18213545    -0.81400
H174        H  0.75323425  0.17952623  0.32740032    -0.06800
C175        C  0.88538847  0.16378892  0.26402629     0.87200
O176        O  0.79947529  0.27163113  0.25045441    -0.75900
O177        O  0.78369940  0.13720982  0.22082513    -0.88700
O178        O  0.83572012  0.14101348  0.35418610    -0.81500
C179        C  0.76886177  0.07305928  0.30704346     0.92300
C180        C  0.69874920  0.12552114  0.19704929     0.92200
Mg181      Mg  0.85654692  0.21207926  0.31527517     1.58000
O182        O  0.91234571  0.22643680  0.30911834    -0.81400
O183        O  0.80026464  0.20082320  0.32825177    -0.75700
O184        O  0.75661551  0.08361044  0.27909202    -0.81500
O185        O  0.74787043  0.20175821  0.13524732    -0.83200
O186        O  0.86603672  0.29597013  0.21741018    -0.81500
C187        C  0.77858119  0.17971547  0.31686911     0.86600
O188        O  0.84069172  0.24144388  0.27215975    -0.88700
O189        O  0.86013534  0.16889493  0.28188607    -0.88800
O190        O  0.89598860  0.18645746  0.24372048    -0.75800
Mg191      Mg  0.74704386  0.13872843  0.26176298     1.58000
O192        O  0.79592608  0.08566459  0.31885584    -0.83200
H193        H  0.72556381  0.23940647  0.22647006    -0.06900
O194        O  0.83854709  0.22053403  0.19919041    -0.88500
H195        H  0.87143473  0.20078040  0.16567998    -0.06800
H196        H  0.81590257  0.27697729  0.29911606    -0.07000
C197        C  0.84609061  0.20039867  0.17621796     0.86600
C198        C  0.73893958  0.21541551  0.22839124     0.87200
C199        C  0.81881315  0.26387143  0.27509226     0.87200
H200        H  0.89854842  0.13964816  0.26556833    -0.06900
O201        O  0.82470891  0.10722558  0.24324993    -0.76000
Mg202      Mg  0.87731936  0.24094484  0.23182184     1.58000
H203        H  0.80844272  0.10107835  0.19461261    -0.06900
C204        C  0.76050636  0.23015107  0.12657572     0.92200
O205        O  0.82880054  0.29432837  0.17573915    -0.83200
C206        C  0.85520689  0.30680077  0.18909668     0.92300
O207        O  0.70849759  0.11600081  0.22619179    -0.83200
Mg208      Mg  0.82946651  0.12700013  0.29857046     1.58200
O209        O  0.78859189  0.23949682  0.13908708    -0.81500
O210        O  0.87614165  0.17912269  0.35795459    -0.83200
C211        C  0.69232646  0.97432504  0.38127424     0.79800
N212        N  0.66658350  0.97387828  0.40442043    -0.78500
C213        C  0.65178864  0.94348926  0.41288047     0.82200
N214        N  0.66268506  0.91399544  0.39762041    -0.78500
C215        C  0.68829355  0.91501050  0.37433406     0.82300
N216        N  0.70263636  0.94510689  0.36675053    -0.80200
O217        O  0.78000367  0.63666219  0.22165964    -0.88800
C218        C  0.87671615  0.67538770  0.21845692     0.87200
Mg219      Mg  0.73698992  0.66699950  0.20713455     1.58100
O220        O  0.84057386  0.66530762  0.29961575    -0.88500
O221        O  0.80079808  0.60477910  0.26196172    -0.75800
C222        C  0.74927273  0.80763024  0.29474442     0.92300
O223        O  0.80989058  0.69303228  0.16890124    -0.75700
O224        O  0.73510568  0.79574930  0.26838721    -0.83200
Mg225      Mg  0.82093449  0.63784106  0.18523375     1.58000
C226        C  0.85351233  0.75154995  0.36596380     0.92200
O227        O  0.83489809  0.58201253  0.19381341    -0.81400
H228        H  0.82216056  0.63662074  0.33723318    -0.06800
C229        C  0.83469415  0.76189210  0.25921912     0.87200
O230        O  0.72406809  0.67837685  0.26318429    -0.75900
O231        O  0.85325864  0.65577460  0.22523121    -0.88700
O232        O  0.86932885  0.72671426  0.35214932    -0.81500
C233        C  0.92557640  0.64528451  0.30337491     0.92300
C234        C  0.86226026  0.56927918  0.20511615     0.92200
Mg235      Mg  0.78999497  0.73885534  0.31628538     1.58000
O236        O  0.77631649  0.79451011  0.30638937    -0.81400
O237        O  0.80113510  0.68385042  0.33391079    -0.75700
O238        O  0.91239958  0.63443484  0.27602457    -0.81500
O239        O  0.78611080  0.61806451  0.14433180    -0.83200
O240        O  0.69808207  0.74220223  0.22566775    -0.81500
C241        C  0.82158328  0.66075355  0.32410321     0.86600
O242        O  0.75750444  0.72024204  0.27714207    -0.88700
O243        O  0.83139015  0.73901796  0.28043799    -0.88800
O244        O  0.81017983  0.77065835  0.24011951    -0.75800
Mg245      Mg  0.85640451  0.62258100  0.26789594     1.58000
O246        O  0.91604394  0.67348596  0.31620668    -0.83200
H247        H  0.75245461  0.60056823  0.24446573    -0.06900
O248        O  0.77017667  0.71053675  0.20338743    -0.88500
H249        H  0.78840948  0.74005588  0.16634610    -0.06800
H250        H  0.72409520  0.70056255  0.30989886    -0.07000
C251        C  0.78912942  0.71566585  0.17899315     0.86600
C252        C  0.77658667  0.61347399  0.24250497     0.87200
C253        C  0.73478442  0.70003939  0.28460709     0.87200
H254        H  0.85887642  0.77461955  0.25677125    -0.06900
O255        O  0.88784578  0.69629524  0.24046685    -0.76000
Mg256      Mg  0.75420778  0.75323308  0.23424316     1.58000
H257        H  0.88793400  0.67479836  0.19339542    -0.06900
C258        C  0.75687433  0.62802218  0.13524199     0.92200
O259        O  0.69518357  0.70067859  0.18830520    -0.83200
C260        C  0.68554661  0.72962918  0.19871885     0.92300
O261        O  0.87532757  0.58040517  0.23248822    -0.83200
Mg262      Mg  0.87431684  0.70848737  0.29646774     1.58200
O263        O  0.74090143  0.65093395  0.15162038    -0.81500
O264        O  0.82440720  0.76030287  0.35573849    -0.83200
C265        C  0.08493401  0.56875317  0.37458053     0.79800
N266        N  0.05479037  0.57957866  0.36283236    -0.78500
C267        C  0.02536822  0.56693233  0.37456043     0.82200
N268        N  0.02580459  0.54258504  0.39917954    -0.78500
C269        C  0.05626262  0.53112181  0.41146590     0.82300
N270        N  0.08591202  0.54422786  0.39896642    -0.80200
C271        C  0.43006126  0.31335164  0.03275084     0.79800
N272        N  0.45575443  0.33657676  0.03324989    -0.78500
C273        C  0.46813586  0.34911714  0.00329517     0.82200
N274        N  0.45484298  0.33793477  0.97317117    -0.78500
C275        C  0.42920393  0.31468480  0.97320813     0.82300
N276        N  0.41724279  0.30283260  0.00286211    -0.80200
O277        O  0.28102636  0.24046199  0.72386411    -0.88800
C278        C  0.27883793  0.20196604  0.82055969     0.87200
Mg279      Mg  0.26624519  0.20795503  0.68201768     1.58100
O280        O  0.35952192  0.21429737  0.78466080    -0.88500
O281        O  0.32179929  0.27248754  0.74364196    -0.75800
C282        C  0.35962502  0.07075588  0.69371088     0.92300
O283        O  0.22940433  0.18362392  0.75454938    -0.75700
O284        O  0.33109467  0.08112769  0.68304118    -0.83200
Mg285      Mg  0.24491717  0.23933642  0.76521028     1.58000
C286        C  0.42869720  0.13247771  0.79962541     0.92200
O287        O  0.25112660  0.29538749  0.78068921    -0.81400
H288        H  0.39631754  0.24457410  0.76715345    -0.06800
C289        C  0.32411299  0.11622634  0.78031120     0.87200
O290        O  0.32258769  0.19828199  0.66803010    -0.75900
O291        O  0.28506633  0.22243474  0.79765972    -0.88700
O292        O  0.41426924  0.15806549  0.81335990    -0.81500
C293        C  0.36165189  0.23600830  0.87035397     0.92300
C294        C  0.26531993  0.30946457  0.80609955     0.92200
Mg295      Mg  0.38028466  0.14168161  0.73452466     1.58000
O296        O  0.37496446  0.08584140  0.71786669    -0.81400
O297        O  0.39526219  0.19729162  0.74596825    -0.75700
O298        O  0.33489048  0.24657320  0.85604769    -0.81500
O299        O  0.20538463  0.25884252  0.72929409    -0.83200
O300        O  0.28813795  0.13370523  0.64515190    -0.81500
C301        C  0.38418991  0.21990062  0.76625619     0.86600
O302        O  0.33966779  0.15805546  0.70220208    -0.88700
O303        O  0.34435518  0.13981173  0.77615960    -0.88800
O304        O  0.30421432  0.10694368  0.75670917    -0.75800
Mg305      Mg  0.32761566  0.25631360  0.79967594     1.58000
O306        O  0.37530497  0.20813333  0.86097258    -0.83200
H307        H  0.30421541  0.27544310  0.69523778    -0.06900
O308        O  0.26571299  0.16596143  0.71674689    -0.88500
H309        H  0.22878702  0.13587767  0.73434053    -0.06800
H310        H  0.37033921  0.17852316  0.66728464    -0.07000
C311        C  0.24086811  0.16058135  0.73496567     0.86600
C312        C  0.30213730  0.26331585  0.71974953     0.87200
C313        C  0.34540626  0.17806353  0.67875928     0.87200
H314        H  0.32295058  0.10360683  0.80463272    -0.06900
O315        O  0.30140658  0.18154424  0.83138902    -0.76000
Mg316      Mg  0.29719240  0.12374456  0.70112799     1.58000
H317        H  0.25364419  0.20123820  0.83142877    -0.06900
C318        C  0.19600580  0.24722791  0.70071448     0.92200
O319        O  0.24747584  0.17179238  0.64157816    -0.83200
C320        C  0.26019300  0.14346394  0.63264585     0.92300
O321        O  0.29345738  0.29879480  0.81741266    -0.83200
Mg322      Mg  0.35801990  0.17195111  0.81880819     1.58200
O323        O  0.20974596  0.22066502  0.68833203    -0.81500
O324        O  0.42012953  0.12222599  0.77025941    -0.83200
C325        C  0.43086644  0.96380092  0.62245865     0.79800
N326        N  0.45645299  0.96536101  0.59917663    -0.78500
C327        C  0.47174212  0.93597102  0.58822202     0.82200
N328        N  0.46161495  0.90533155  0.60095558    -0.78500
C329        C  0.43622771  0.90432210  0.62429074     0.82300
N330        N  0.42113366  0.93334583  0.63457712    -0.80200
O331        O  0.34993338  0.72396888  0.72060545    -0.88800
C332        C  0.32641451  0.71810625  0.82135145     0.87200
Mg333      Mg  0.31583152  0.74552552  0.68369986     1.58100
O334        O  0.33033398  0.63997118  0.77534670    -0.88500
O335        O  0.38423442  0.68176312  0.73150232    -0.75800
C336        C  0.18310939  0.65536884  0.70065758     0.92300
O337        O  0.30240012  0.77555102  0.76307983    -0.75700
O338        O  0.18882013  0.68538594  0.69053477    -0.83200
Mg339      Mg  0.35782363  0.75556885  0.76428042     1.58000
C340        C  0.24573374  0.57613137  0.79233694     0.92200
O341        O  0.41400285  0.74188730  0.76783295    -0.81400
H342        H  0.35515374  0.60424503  0.74870040    -0.06800
C343        C  0.23528487  0.68241957  0.78597087     0.87200
O344        O  0.30169786  0.69202746  0.66435354    -0.75900
O345        O  0.34288132  0.71302578  0.79520403    -0.88700
O346        O  0.27307369  0.58755877  0.80513147    -0.81500
C347        C  0.35757275  0.62889934  0.86034004     0.92300
C348        C  0.42823570  0.73025417  0.79420197     0.92200
Mg349      Mg  0.25101000  0.63130397  0.73236517     1.58000
O350        O  0.19570262  0.64582825  0.72864203    -0.81400
O351        O  0.30621587  0.61149000  0.73410817    -0.75700
O352        O  0.37320108  0.65120110  0.84304519    -0.81500
O353        O  0.37639111  0.79653604  0.72949754    -0.83200
O354        O  0.23300391  0.73777181  0.65512055    -0.81500
C355        C  0.33167867  0.61794857  0.75285470     0.86600
O356        O  0.26536948  0.67461870  0.70198474    -0.88700
O357        O  0.25780672  0.66258955  0.77663527    -0.88800
O358        O  0.22286393  0.70428613  0.76577795    -0.75800
Mg359      Mg  0.37494415  0.66897868  0.78811039     1.58000
O360        O  0.32773750  0.61929710  0.85278324    -0.83200
H361        H  0.38091883  0.70439092  0.68524909    -0.06900
O362        O  0.27706238  0.74678142  0.72280534    -0.88500
H363        H  0.25293946  0.78254072  0.75005874    -0.06800
H364        H  0.27796711  0.64616695  0.66162133    -0.07000
C365        C  0.27629558  0.76882863  0.74528878     0.86600
C366        C  0.37196147  0.70362256  0.71119200     0.87200
C367        C  0.28122245  0.66980905  0.67540684     0.87200
H368        H  0.22601632  0.68119264  0.81178354    -0.06900
O369        O  0.30579531  0.69594235  0.83228128    -0.76000
Mg370      Mg  0.23225139  0.71820687  0.70955251     1.58000
H371        H  0.32926702  0.74194533  0.83488782    -0.06900
C372        C  0.36275186  0.80848943  0.70299523     0.92200
O373        O  0.27924484  0.76866464  0.64647803    -0.83200
C374        C  0.24893407  0.76078873  0.63913797     0.92300
O375        O  0.41918180  0.70154704  0.80579892    -0.83200
Mg376      Mg  0.29140719  0.64193919  0.81424810     1.58200
O377        O  0.33277536  0.79998807  0.69490417    -0.81500
O378        O  0.23309957  0.58860013  0.76555061    -0.83200
C379        C  0.09419921  0.56902108  0.62697033     0.79800
N380        N  0.06524360  0.58199350  0.63969093    -0.78500
C381        C  0.03479912  0.57197117  0.62809454     0.82200
N382        N  0.03296283  0.54794204  0.60301290    -0.78500
C383        C  0.06224363  0.53435765  0.58981035     0.82300
N384        N  0.09299422  0.54516984  0.60179602    -0.80200
C385        C  0.09121066  0.32141587  0.63125452     0.79800
N386        N  0.06146243  0.31228139  0.64536541    -0.78500
C387        C  0.03171790  0.32423395  0.63348954     0.82200
N388        N  0.03163868  0.34631429  0.60685389    -0.78500
C389        C  0.06162181  0.35591597  0.59225007     0.82300
N390        N  0.09153002  0.34328910  0.60450075    -0.80200
O391        O  0.85694254  0.17436423  0.71763411    -0.88800
C392        C  0.81357059  0.26933884  0.72487790     0.87200
Mg393      Mg  0.82700285  0.13130239  0.70151182     1.58100
O394        O  0.83220812  0.22605613  0.80035399    -0.88500
O395        O  0.89137873  0.19286562  0.75675417    -0.75800
C396        C  0.69362407  0.12831083  0.80090149     0.92300
O397        O  0.79643318  0.20432610  0.67091013    -0.75700
O398        O  0.70370720  0.11998160  0.77142385    -0.83200
Mg399      Mg  0.85202317  0.21751401  0.68429141     1.58000
C400        C  0.75299098  0.23367657  0.87256971     0.92200
O401        O  0.90697936  0.23533604  0.68944286    -0.81400
H402        H  0.86491865  0.20712801  0.83423592    -0.06800
C403        C  0.73324592  0.21984762  0.76979128     0.87200
O404        O  0.82135364  0.11311277  0.75708326    -0.75900
O405        O  0.83543838  0.24686697  0.72761321    -0.88700
O406        O  0.78097574  0.24418377  0.86058537    -0.81500
C407        C  0.84977231  0.31165724  0.81221047     0.92300
C408        C  0.92160882  0.25964274  0.70501466     0.92200
Mg409      Mg  0.76252841  0.17165640  0.82164150     1.58000
O410        O  0.70762936  0.15246488  0.81732232    -0.81400
O411        O  0.81831542  0.18492520  0.83467398    -0.75700
O412        O  0.85803990  0.30178918  0.78258072    -0.81500
O413        O  0.87268470  0.18452466  0.64162063    -0.83200
O414        O  0.75480401  0.08747600  0.72213839    -0.81500
C415        C  0.83974322  0.20625275  0.82340457     0.86600
O416        O  0.77907749  0.14238459  0.77834881    -0.88700
O417        O  0.75790550  0.21534691  0.78849915    -0.88800
O418        O  0.72399470  0.19700286  0.74888156    -0.75800
Mg419      Mg  0.87151523  0.24695773  0.76853983     1.58000
O420        O  0.82324577  0.29977502  0.82596401    -0.83200
H421        H  0.89573054  0.14619992  0.73455132    -0.06900
O422        O  0.78281049  0.16297175  0.70506086    -0.88500
H423        H  0.75012418  0.18155088  0.67096324    -0.06800
H424        H  0.80411105  0.10740864  0.80541377    -0.07000
C425        C  0.77522979  0.18267377  0.68193618     0.86600
C426        C  0.88191819  0.16999193  0.73596889     0.87200
C427        C  0.80135673  0.12042832  0.78143492     0.87200
H428        H  0.71953495  0.24371210  0.77098793    -0.06900
O429        O  0.79415566  0.27716986  0.74961326    -0.76000
Mg430      Mg  0.74332407  0.14265322  0.73699088     1.58000
H431        H  0.81084906  0.28256175  0.70100610    -0.06900
C432        C  0.86197512  0.15565349  0.63196862     0.92200
O433        O  0.79374143  0.08886738  0.68194415    -0.83200
C434        C  0.76682620  0.07634529  0.69426508     0.92300
O435        O  0.91143369  0.26965973  0.73398298    -0.83200
Mg436      Mg  0.78865045  0.25815756  0.80514291     1.58200
O437        O  0.83550333  0.14298494  0.64533465    -0.81500
O438        O  0.74150553  0.20488430  0.86369367    -0.83200
C439        C  0.68968110  0.97377889  0.62450877     0.79800
N440        N  0.66418940  0.97447932  0.60116986    -0.78500
C441        C  0.64960627  0.94464787  0.59068784     0.82200
N442        N  0.66051666  0.91442247  0.60399027    -0.78500
C443        C  0.68590330  0.91420442  0.62740468     0.82300
N444        N  0.70033211  0.94374316  0.63709356    -0.80200
O445        O  0.86384551  0.66244499  0.78101474    -0.88800
C446        C  0.83550624  0.66097872  0.68068438     0.87200
Mg447      Mg  0.83039100  0.64390822  0.82026931     1.58100
O448        O  0.83915345  0.74229556  0.71910721    -0.88500
O449        O  0.89497788  0.70547761  0.76477437    -0.75800
C450        C  0.69310347  0.73202716  0.80048676     0.92300
O451        O  0.81466562  0.60816749  0.74285290    -0.75700
O452        O  0.70343272  0.70364928  0.81187325    -0.83200
Mg453      Mg  0.86958035  0.62821223  0.73841030     1.58000
C454        C  0.75471623  0.80689905  0.69943951     0.92200
O455        O  0.92555791  0.64167566  0.73153469    -0.81400
H456        H  0.86477431  0.78077552  0.74036934    -0.06800
C457        C  0.74388424  0.69874849  0.71561421     0.87200
O458        O  0.81518417  0.69917572  0.83445584    -0.75900
O459        O  0.85296740  0.66847612  0.70554802    -0.88700
O460        O  0.77987860  0.79187684  0.68578938    -0.81500
C461        C  0.86517424  0.74811978  0.63462259     0.92300
C462        C  0.93895896  0.65251897  0.70434764     0.92200
Mg463      Mg  0.76169716  0.75577116  0.76367966     1.58000
O464        O  0.70568504  0.74443221  0.77353083    -0.81400
O465        O  0.81650257  0.77519267  0.75764374    -0.75700
O466        O  0.88065349  0.72482040  0.65070788    -0.81500
O467        O  0.88830215  0.58734989  0.77339075    -0.83200
O468        O  0.75255013  0.65935675  0.85161942    -0.81500
C469        C  0.84126399  0.76671135  0.73878512     0.86600
O470        O  0.77855117  0.71464791  0.79615496    -0.88700
O471        O  0.76576862  0.72037316  0.72183461    -0.88800
O472        O  0.73403033  0.67789479  0.73817615    -0.75800
Mg473      Mg  0.88418221  0.71313174  0.70745213     1.58000
O474        O  0.83519694  0.75712630  0.64243520    -0.83200
H475        H  0.89464261  0.68717842  0.81301186    -0.06900
O476        O  0.79129672  0.63997142  0.78202802    -0.88500
H477        H  0.76598744  0.60228733  0.75895678    -0.06800
H478        H  0.79279250  0.74590997  0.83373460    -0.07000
C479        C  0.78949747  0.61621990  0.76145427     0.86600
C480        C  0.88483870  0.68488162  0.78748642     0.87200
C481        C  0.79524142  0.72116817  0.82180714     0.87200
H482        H  0.73319245  0.69728212  0.69038990    -0.06900
O483        O  0.81399137  0.68180582  0.66878761    -0.76000
Mg484      Mg  0.74689865  0.67011106  0.79486849     1.58000
H485        H  0.83820498  0.63605798  0.66918564    -0.06900
C486        C  0.87663523  0.57613730  0.80117485     0.92200
O487        O  0.79310428  0.62147308  0.85848093    -0.83200
C488        C  0.76375098  0.63270546  0.86592829     0.92300
O489        O  0.92879857  0.68032189  0.69153558    -0.83200
Mg490      Mg  0.79910236  0.73707318  0.68199605     1.58200
O491        O  0.85079889  0.58941672  0.81546496    -0.81500
O492        O  0.74283819  0.79701151  0.72777279    -0.83200
C493        C  0.43367272  0.56694108  0.02733589     0.79800
N494        N  0.42092800  0.57737418  0.99743042    -0.78500
C495        C  0.43103009  0.56340820  0.96784343     0.82200
N496        N  0.45505068  0.53835780  0.96786829    -0.78500
C497        C  0.46852753  0.52757092  0.99799900     0.82300
N498        N  0.45770580  0.54195081  0.02780431    -0.80200
C499        C  0.68458070  0.31205601  0.03326975     0.79800
N500        N  0.65938922  0.33599283  0.03419096    -0.78500
C501        C  0.64595884  0.34792679  0.00437917     0.82200
N502        N  0.65803236  0.33583798  0.97401210    -0.78500
C503        C  0.68326890  0.31209032  0.97363730     0.82300
N504        N  0.69594288  0.30057318  0.00311570    -0.80200
C505        C  0.68684713  0.56159891  0.02479316     0.79800
N506        N  0.66087021  0.53874768  0.02601845    -0.78500
C507        C  0.64693522  0.52662924  0.99658816     0.82200
N508        N  0.65927520  0.53752366  0.96597973    -0.78500
C509        C  0.68528761  0.56038093  0.96518020     0.82300
N510        N  0.69864438  0.57197011  0.99443148    -0.80200
C511        C  0.53353178  0.05832983  0.12590773     0.79800
N512        N  0.53200610  0.03570624  0.09951985    -0.78500
C513        C  0.56134653  0.02287089  0.08574841     0.82200
N514        N  0.59202381  0.03284972  0.09861442    -0.78500
C515        C  0.59309621  0.05536759  0.12500765     0.82300
N516        N  0.56400862  0.06752370  0.13824330    -0.80200
C517        C  0.19027136  0.40368885  0.12303748     0.79800
N518        N  0.16424741  0.40623381  0.10051873    -0.78500
C519        C  0.15404698  0.43765380  0.08961356     0.82200
N520        N  0.16984825  0.46625733  0.10174707    -0.78500
C521        C  0.19580273  0.46324113  0.12445281     0.82300
N522        N  0.20565790  0.43202165  0.13449911    -0.80200
C523        C  0.18572456  0.06693907  0.53496344     0.79800
N524        N  0.15947196  0.04448230  0.53391392    -0.78500
C525        C  0.14662925  0.03449431  0.50323605     0.82200
N526        N  0.16010665  0.04729729  0.47390198    -0.78500
C527        C  0.18619997  0.06997005  0.47555882     0.82300
N528        N  0.19873235  0.07923403  0.50591800    -0.80200
N529        N  0.10764719  0.94669877  0.49696655    -0.37000
N530        N  0.05338682  0.89532515  0.49587041    -0.57600
N531        N  0.00254403  0.94997432  0.49753004    -0.37000
N532        N  0.05673943  0.00129725  0.50201004    -0.57600
C533        C  0.12628648  0.91790037  0.50108183     0.26500
C534        C  0.12799832  0.97374275  0.50373708     0.26500
C535        C  0.98182413  0.92258205  0.50046384     0.26500
C536        C  0.98357997  0.97837583  0.50272243     0.26500
C537        C  0.08037998  0.87422290  0.49218868     0.35200
C538        C  0.02511391  0.87595682  0.49288642     0.35200
C539        C  0.08495099  0.02079117  0.49941230     0.35200
C540        C  0.02972539  0.02252676  0.49945062     0.35200
C541        C  0.15917828  0.92693957  0.50994288    -0.22300
C542        C  0.16021475  0.96196567  0.51166707    -0.22300
C543        C  0.94907200  0.93382937  0.50713219    -0.22300
C544        C  0.95016029  0.96887365  0.50848357    -0.22300
C545        C  0.06908523  0.84110518  0.48714173    -0.23400
C546        C  0.03422712  0.84222036  0.48757203    -0.23400
C547        C  0.07578225  0.05470688  0.49576941    -0.23400
C548        C  0.04090184  0.05579946  0.49576807    -0.23400
C549        C  0.11497498  0.88376068  0.49595394    -0.18700
C550        C  0.11887449  0.00879725  0.50177103    -0.18700
C551        C  0.99509104  0.01269903  0.50132819    -0.18700
C552        C  0.99118279  0.88774598  0.49656994    -0.18700
H553        H  0.18050457  0.91018862  0.51449188     0.14200
H554        H  0.18234947  0.97701341  0.51790101     0.14200
H555        H  0.92658336  0.91842062  0.51056708     0.14200
H556        H  0.92866131  0.98545249  0.51316379     0.14200
H557        H  0.08426847  0.81828261  0.48419439     0.12500
H558        H  0.01752270  0.82052963  0.48480850     0.12500
H559        H  0.09246772  0.07646013  0.49349024     0.12500
H560        H  0.02553557  0.07855659  0.49341306     0.12500
H561        H  0.08287853  0.94789793  0.48851848     0.25700
H562        H  0.02792407  0.94944894  0.49118779     0.25700
N563        N  0.55693360  0.93304882  0.05030159    -0.37000
N564        N  0.55928127  0.98469373  0.99713455    -0.57600
N565        N  0.55671795  0.93003377  0.94507931    -0.37000
N566        N  0.55823607  0.87829066  0.99827017    -0.57600
C567        C  0.56293485  0.96127416  0.06945084     0.26500
C568        C  0.56215207  0.90540071  0.07017712     0.26500
C569        C  0.56084575  0.95758543  0.92484836     0.26500
C570        C  0.56018508  0.90167382  0.92549549     0.26500
C571        C  0.55679724  0.00582053  0.02437427     0.35200
C572        C  0.55637152  0.00423701  0.96901630     0.35200
C573        C  0.55561609  0.85876968  0.02645671     0.35200
C574        C  0.55540168  0.85719625  0.97103795     0.35200
C575        C  0.57155106  0.95130961  0.10208039    -0.22300
C576        C  0.57106853  0.91626203  0.10253985    -0.22300
C577        C  0.56652448  0.94653053  0.89178631    -0.22300
C578        C  0.56612974  0.91145099  0.89220396    -0.22300
C579        C  0.55272549  0.03909985  0.01346735    -0.23400
C580        C  0.55244592  0.03811434  0.97852725    -0.23400
C581        C  0.55153999  0.82492869  0.01703699    -0.23400
C582        C  0.55143972  0.82393275  0.98206962    -0.23400
C583        C  0.55989118  0.99581958  0.05888782    -0.18700
C584        C  0.55830074  0.87060077  0.06056406    -0.18700
C585        C  0.55740104  0.86719852  0.93636177    -0.18700
C586        C  0.55863186  0.99245793  0.93485325    -0.18700
H587        H  0.57756254  0.96755321  0.12349755     0.14200
H588        H  0.57671714  0.90057441  0.12436381     0.14200
H589        H  0.57045875  0.96209333  0.86950488     0.14200
H590        H  0.56976692  0.89504186  0.87034260     0.14200
H591        H  0.55051608  0.06178746  0.02903659     0.12500
H592        H  0.54993940  0.05995729  0.96201759     0.12500
H593        H  0.54915283  0.80314076  0.03363042     0.12500
H594        H  0.54888827  0.80125452  0.96655551     0.12500
H595        H  0.54831168  0.93255504  0.02555096     0.25700
H596        H  0.55072509  0.93072147  0.97055832     0.25700
N597        N  0.06412410  0.44279753  0.05552181    -0.37000
N598        N  0.11630299  0.44105190  0.00171664    -0.57600
N599        N  0.06276387  0.44147814  0.95003086    -0.37000
N600        N  0.01065239  0.43920253  0.00350357    -0.57600
C601        C  0.09229790  0.43699071  0.07446579     0.26500
C602        C  0.03655380  0.43720184  0.07545361     0.26500
C603        C  0.09034925  0.43903450  0.92952407     0.26500
C604        C  0.03475229  0.43747461  0.93048993     0.26500
C605        C  0.13678453  0.44442875  0.02912744     0.35200
C606        C  0.13607515  0.44462198  0.97373960     0.35200
C607        C  0.99070888  0.44230468  0.03139169     0.35200
C608        C  0.98995631  0.44088551  0.97608665     0.35200
C609        C  0.08239411  0.42818780  0.10711545    -0.22300
C610        C  0.04738122  0.42836721  0.10773924    -0.22300
C611        C  0.07963223  0.43382984  0.89636483    -0.22300
C612        C  0.04473172  0.43285751  0.89696640    -0.22300
C613        C  0.16988295  0.44989794  0.01840959    -0.23400
C614        C  0.16941103  0.45008389  0.98348231    -0.23400
C615        C  0.95705205  0.44553055  0.02155540    -0.23400
C616        C  0.95659031  0.44459005  0.98667233    -0.23400
C617        C  0.12667067  0.44045957  0.06360140    -0.18700
C618        C  0.00191093  0.44051618  0.06565633    -0.18700
C619        C  0.00037004  0.43862390  0.94157670    -0.18700
C620        C  0.12493012  0.44200529  0.93947707    -0.18700
H621        H  0.09867082  0.42232660  0.12841894     0.14200
H622        H  0.03169323  0.42251294  0.12952339     0.14200
H623        H  0.09530545  0.43101327  0.87393371     0.14200
H624        H  0.02856523  0.42917155  0.87506724     0.14200
H625        H  0.19219048  0.45310877  0.03408197     0.12500
H626        H  0.19120838  0.45363964  0.96712952     0.12500
H627        H  0.93500213  0.44801675  0.03780334     0.12500
H628        H  0.93419083  0.44643654  0.97090781     0.12500
H629        H  0.06371646  0.45146999  0.03081331     0.25700
H630        H  0.06299180  0.44650206  0.97567575     0.25700
N631        N  0.61004129  0.43780903  0.00289076    -0.37000
N632        N  0.55757422  0.49109911  0.99818900    -0.57600
N633        N  0.50475745  0.43836414  0.00240568    -0.37000
N634        N  0.55724319  0.38500175  0.00375141    -0.57600
C635        C  0.62975289  0.46535863  0.99631210     0.26500
C636        C  0.62959343  0.40946116  0.99938705     0.26500
C637        C  0.48536631  0.46614337  0.99565911     0.26500
C638        C  0.48522189  0.41025333  0.99789186     0.26500
C639        C  0.58534025  0.51128129  0.00107883     0.35200
C640        C  0.52994386  0.51152261  0.00143330     0.35200
C641        C  0.58480183  0.36484326  0.00857119     0.35200
C642        C  0.52943597  0.36515655  0.00803377     0.35200
C643        C  0.66245282  0.45432934  0.98902955    -0.22300
C644        C  0.66235299  0.41926472  0.99095395    -0.22300
C645        C  0.45289441  0.45552686  0.98719457    -0.22300
C646        C  0.45280647  0.42044296  0.98855196    -0.22300
C647        C  0.57523982  0.54484658  0.00573338    -0.23400
C648        C  0.54029149  0.54500252  0.00597985    -0.23400
C649        C  0.57437955  0.33188597  0.01558861    -0.23400
C650        C  0.53945734  0.33208251  0.01525236    -0.23400
C651        C  0.61965294  0.50023716  0.99801602    -0.18700
C652        C  0.61921760  0.37506640  0.00472036    -0.18700
C653        C  0.49520422  0.37577093  0.00342647    -0.18700
C654        C  0.49555110  0.50083448  0.99845219    -0.18700
H655        H  0.68429434  0.46991022  0.98311415     0.14200
H656        H  0.68411300  0.40289823  0.98679723     0.14200
H657        H  0.43131622  0.47137954  0.98093258     0.14200
H658        H  0.43110778  0.40434322  0.98353869     0.14200
H659        H  0.59135904  0.56699010  0.00844628     0.12500
H660        H  0.52435169  0.56732773  0.00881086     0.12500
H661        H  0.59027043  0.30984082  0.02008488     0.12500
H662        H  0.52331901  0.31020257  0.01939953     0.12500
H663        H  0.58503494  0.43841768  0.01077868     0.25700
H664        H  0.52942955  0.43868495  0.01127514     0.25700
N665        N  0.06046423  0.49629615  0.50103451    -0.37000
N666        N  0.05886843  0.44222792  0.44879995    -0.57600
N667        N  0.06318796  0.39018814  0.50230259    -0.37000
N668        N  0.06075910  0.44434134  0.55455131    -0.57600
C669        C  0.05535459  0.51561533  0.47298034     0.26500
C670        C  0.05696309  0.51672307  0.52875079     0.26500
C671        C  0.05879127  0.36975195  0.47476280     0.26500
C672        C  0.05911134  0.37086674  0.53053353     0.26500
C673        C  0.06027430  0.46977107  0.42812329     0.35200
C674        C  0.06195610  0.41414609  0.42881465     0.35200
C675        C  0.06378310  0.47250096  0.57441796     0.35200
C676        C  0.06422439  0.41689486  0.57507964     0.35200
C677        C  0.04894254  0.54894440  0.48307815    -0.22300
C678        C  0.04999367  0.54964148  0.51807488    -0.22300
C679        C  0.05242241  0.33680100  0.48572168    -0.22300
C680        C  0.05261823  0.33750537  0.52074357    -0.22300
C681        C  0.06386467  0.45901526  0.39472027    -0.23400
C682        C  0.06494200  0.42397389  0.39515739    -0.23400
C683        C  0.06876801  0.46278752  0.60786226    -0.23400
C684        C  0.06900472  0.42776337  0.60828837    -0.23400
C685        C  0.05729462  0.50449781  0.43849340    -0.18700
C686        C  0.06087142  0.50690635  0.56335554    -0.18700
C687        C  0.06187449  0.38211571  0.56487885    -0.18700
C688        C  0.06081494  0.37967978  0.44002032    -0.18700
H689        H  0.04409973  0.57065918  0.46692279     0.14200
H690        H  0.04609549  0.57196617  0.53383542     0.14200
H691        H  0.04794073  0.31449407  0.47012054     0.14200
H692        H  0.04838352  0.31583591  0.53712263     0.14200
H693        H  0.06541743  0.47476103  0.37227271     0.12500
H694        H  0.06748378  0.40760050  0.37311533     0.12500
H695        H  0.07167948  0.47920240  0.62980988     0.12500
H696        H  0.07219250  0.41210448  0.63062598     0.12500
H697        H  0.06719632  0.47098054  0.50118503     0.25700
H698        H  0.06972392  0.41555508  0.50186445     0.25700
N699        N  0.61419759  0.94187860  0.50151814    -0.37000
N700        N  0.56238905  0.93650875  0.44786988    -0.57600
N701        N  0.50937550  0.93256275  0.50004838    -0.37000
N702        N  0.56102478  0.94135282  0.55366332    -0.57600
C703        C  0.63369691  0.94788986  0.47374263     0.26500
C704        C  0.63302982  0.94884830  0.52953472     0.26500
C705        C  0.48967305  0.93379359  0.47183339     0.26500
C706        C  0.48895279  0.93708243  0.52744294     0.26500
C707        C  0.59061831  0.93526373  0.42816159     0.35200
C708        C  0.53546663  0.92989261  0.42745312     0.35200
C709        C  0.58845446  0.94039990  0.57437010     0.35200
C710        C  0.53326147  0.93727522  0.57354728     0.35200
C711        C  0.66554303  0.95856152  0.48440559    -0.22300
C712        C  0.66513420  0.95908975  0.51938908    -0.22300
C713        C  0.45613273  0.93851854  0.48155274    -0.22300
C714        C  0.45567322  0.94055671  0.51646276    -0.22300
C715        C  0.58141926  0.92820675  0.39488282    -0.23400
C716        C  0.54667555  0.92474579  0.39446070    -0.23400
C717        C  0.57796679  0.93628480  0.60772731    -0.23400
C718        C  0.54312165  0.93442134  0.60722175    -0.23400
C719        C  0.62435677  0.94226462  0.43915663    -0.18700
C720        C  0.62273480  0.94472296  0.56398133    -0.18700
C721        C  0.49903957  0.93705931  0.56214496    -0.18700
C722        C  0.50075212  0.93020932  0.43756345    -0.18700
H723        H  0.68718205  0.96486828  0.46873200     0.14200
H724        H  0.68629957  0.96600101  0.53545500     0.14200
H725        H  0.43414966  0.94031905  0.46521015     0.14200
H726        H  0.43324758  0.94416287  0.53197123     0.14200
H727        H  0.59790453  0.92628720  0.37297197     0.12500
H728        H  0.53137844  0.91944765  0.37226272     0.12500
H729        H  0.59372116  0.93512832  0.63018423     0.12500
H730        H  0.52690974  0.93136803  0.62920702     0.12500
H731        H  0.59002860  0.93179032  0.50140522     0.25700
H732        H  0.53511079  0.92776437  0.50070207     0.25700
C733        C  0.75016393  0.57968325  0.89835632    -0.09600
C734        C  0.74171437  0.61363675  0.89022579     0.06600
C735        C  0.71112517  0.62733117  0.90365768    -0.03400
C736        C  0.69065997  0.60756066  0.92495974    -0.07800
C737        C  0.69980409  0.57426180  0.93375293     0.05700
C738        C  0.72974269  0.56026606  0.92010839    -0.02800
Br739      Br  0.74492544  0.51559816  0.93276575    -0.02500
H740        H  0.77306168  0.56820789  0.88819875     0.09600
H741        H  0.66856133  0.61914557  0.93671558     0.07600
Br742      Br  0.69660778  0.67361168  0.89698239    -0.03000
C743        C  0.73306205  0.87383591  0.63256517    -0.09600
C744        C  0.69998102  0.88280916  0.64187939     0.06600
C745        C  0.68528219  0.86759949  0.67054585    -0.03400
C746        C  0.70374117  0.84364010  0.68938401    -0.07800
C747        C  0.73726771  0.83466784  0.68038026     0.05700
C748        C  0.75174652  0.85019452  0.65129682    -0.02800
Br749      Br  0.79746745  0.84275324  0.63627320    -0.02500
H750        H  0.74507532  0.88662545  0.61137462     0.09600
H751        H  0.69170444  0.83204156  0.71119573     0.07600
Br752      Br  0.64089860  0.88054265  0.68595029    -0.03000
C753        C  0.75167371  0.27861164  0.91682199    -0.09600
C754        C  0.73369024  0.25564075  0.89640068     0.06600
C755        C  0.69770789  0.25618072  0.89745000    -0.03400
C756        C  0.68082291  0.27749315  0.92072270    -0.07800
C757        C  0.69920810  0.29887760  0.94247720     0.05700
C758        C  0.73483859  0.30012913  0.93949575    -0.02800
Br759      Br  0.76192758  0.32994062  0.96711150    -0.02500
H760        H  0.77911820  0.27926236  0.91580980     0.09600
H761        H  0.65345424  0.27612920  0.92296081     0.07600
Br762      Br  0.67010929  0.22944523  0.86726536    -0.03000
C763        C  0.71207780  0.04817851  0.68018814    -0.09600
C764        C  0.74741435  0.05038319  0.67481692     0.06600
C765        C  0.76220710  0.03001603  0.64901170    -0.03400
C766        C  0.74205947  0.00707367  0.63076025    -0.07800
C767        C  0.70708135  0.00447260  0.63681262     0.05700
C768        C  0.69196525  0.02568766  0.66130254    -0.02800
Br769      Br  0.64434363  0.02324980  0.67115961    -0.02500
H770        H  0.69986376  0.06416147  0.69908689     0.09600
H771        H  0.75402999  0.99009205  0.61255320     0.07600
Br772      Br  0.80980856  0.03049167  0.63831047    -0.03000
C773        C  0.00049540  0.31250670  0.68650993    -0.09600
C774        C  0.00061414  0.31267212  0.65080270     0.06600
C775        C  0.97435547  0.29606213  0.63329583    -0.03400
C776        C  0.94929947  0.27868855  0.65155618    -0.07800
C777        C  0.94951817  0.27781016  0.68737329     0.05700
C778        C  0.97521973  0.29565261  0.70485766    -0.02800
Br779      Br  0.97886525  0.29631603  0.75349410    -0.02500
H780        H  0.02092905  0.32476770  0.70028113     0.09600
H781        H  0.92948028  0.26574469  0.63753313     0.07600
Br782      Br  0.97291918  0.29414394  0.58463267    -0.03000
C783        C  0.97089542  0.63921085  0.65113890    -0.09600
C784        C  0.96406813  0.63118986  0.68536713     0.06600
C785        C  0.97857900  0.60110125  0.69888706    -0.03400
C786        C  0.99851019  0.57990669  0.67818860    -0.07800
C787        C  0.00511358  0.58805863  0.64417849     0.05700
C788        C  0.99149982  0.61829108  0.63085959    -0.02800
Br789      Br  0.00283583  0.63351379  0.58602187    -0.02500
H790        H  0.96036233  0.66205309  0.63994521     0.09600
H791        H  0.01077396  0.55789385  0.68935156     0.07600
Br792      Br  0.97509135  0.58847442  0.74586146    -0.03000
C793        C  0.37410974  0.57658669  0.89192841    -0.09600
C794        C  0.37612370  0.61220779  0.88829451     0.06600
C795        C  0.39866805  0.63064030  0.90911873    -0.03400
C796        C  0.41840003  0.61351226  0.93300622    -0.07800
C797        C  0.41636294  0.57800909  0.93678615     0.05700
C798        C  0.39402020  0.55945181  0.91597659    -0.02800
Br799      Br  0.38823004  0.51125297  0.92113321    -0.02500
H800        H  0.35722569  0.56198613  0.87581239     0.09600
H801        H  0.43450625  0.62823310  0.94982908     0.07600
Br802      Br  0.40166471  0.67949555  0.90808549    -0.03000
C803        C  0.15365482  0.59949995  0.69327007    -0.09600
C804        C  0.16375194  0.63082276  0.67917171     0.06600
C805        C  0.15699629  0.63665459  0.64424016    -0.03400
C806        C  0.13798590  0.61300586  0.62558984    -0.07800
C807        C  0.12568473  0.58327834  0.64066728     0.05700
C808        C  0.13471639  0.57600560  0.67438412    -0.02800
Br809      Br  0.11890447  0.53547767  0.69640151    -0.02500
H810        H  0.15943589  0.59364195  0.71948633     0.09600
H811        H  0.13052772  0.61915728  0.59984977     0.07600
Br812      Br  0.17201008  0.67620286  0.61979829    -0.03000
C813        C  0.39811733  0.85509793  0.62583386    -0.09600
C814        C  0.42490093  0.87306070  0.64061785     0.06600
C815        C  0.43218571  0.86840853  0.67515776    -0.03400
C816        C  0.41121025  0.84799564  0.69505308    -0.07800
C817        C  0.38305166  0.83122416  0.68091615     0.05700
C818        C  0.37754778  0.83380346  0.64542829    -0.02800
Br819      Br  0.34345644  0.80869759  0.62137562    -0.02500
H820        H  0.39208290  0.85903642  0.59929632     0.09600
H821        H  0.41664809  0.84581730  0.72188829     0.07600
Br822      Br  0.46943666  0.89148398  0.69649266    -0.03000
C823        C  0.20549998  0.12548331  0.60687778    -0.09600
C824        C  0.24090021  0.12082749  0.60943575     0.06600
C825        C  0.25609734  0.09347735  0.59149875    -0.03400
C826        C  0.23622217  0.07296513  0.57037535    -0.07800
C827        C  0.20136599  0.07905051  0.56643322     0.05700
C828        C  0.18584307  0.10505438  0.58543925    -0.02800
Br829      Br  0.13870418  0.11601481  0.57991795    -0.02500
H830        H  0.19301342  0.14561679  0.62105779     0.09600
H831        H  0.24854747  0.05370919  0.55484078     0.07600
Br832      Br  0.30405947  0.08443789  0.59159209    -0.03000
C833        C  0.13996666  0.28165146  0.62912091    -0.09600
C834        C  0.12210889  0.30721458  0.64642054     0.06600
C835        C  0.12864887  0.31282006  0.68107007    -0.03400
C836        C  0.15207541  0.29251238  0.69811402    -0.07800
C837        C  0.16959833  0.26609046  0.68135775     0.05700
C838        C  0.16362577  0.26111889  0.64608634    -0.02800
Br839      Br  0.18628087  0.22724430  0.61890431    -0.02500
H840        H  0.13434687  0.27660185  0.60265256     0.09600
H841        H  0.15638150  0.29748013  0.72483200     0.07600
Br842      Br  0.10553850  0.34768179  0.70652466    -0.03000
C843        C  0.37777047  0.99290152  0.63867731    -0.09600
C844        C  0.41336383  0.99400169  0.63633953     0.06600
C845        C  0.43099557  0.01975999  0.65373977    -0.03400
C846        C  0.41296547  0.04378057  0.67304570    -0.07800
C847        C  0.37728109  0.04267052  0.67554380     0.05700
C848        C  0.35968040  0.01681014  0.65794591    -0.02800
Br849      Br  0.31139422  0.01093715  0.66120652    -0.02500
H850        H  0.36398662  0.97242990  0.62636518     0.09600
H851        H  0.42702618  0.06360000  0.68604630     0.07600
Br852      Br  0.47964827  0.02156010  0.65429279    -0.03000
C853        C  0.37862756  0.30347067  0.93833741    -0.09600
C854        C  0.41392571  0.30050440  0.94221427     0.06600
C855        C  0.43165311  0.27659784  0.92237908    -0.03400
C856        C  0.41399544  0.25557576  0.89971662    -0.07800
C857        C  0.37848572  0.25774899  0.89631579     0.05700
C858        C  0.36083684  0.28269520  0.91553987    -0.02800
Br859      Br  0.31237360  0.28840031  0.91405644    -0.02500
H860        H  0.36457619  0.32100150  0.95441954     0.09600
H861        H  0.42822993  0.23736930  0.88467234     0.07600
Br862      Br  0.47953173  0.26966637  0.92766052    -0.03000
C863        C  0.70384240  0.60721307  0.10809650    -0.09600
C864        C  0.73941647  0.61087898  0.10666149     0.06600
C865        C  0.75722691  0.59617028  0.07925089    -0.03400
C866        C  0.73946644  0.57856373  0.05407941    -0.07800
C867        C  0.70393638  0.57521573  0.05528300     0.05700
C868        C  0.68606154  0.58967179  0.08271584    -0.02800
Br869      Br  0.63745188  0.58867510  0.08545165    -0.02500
H870        H  0.68969102  0.61800015  0.12915847     0.09600
H871        H  0.75352840  0.56815917  0.03274814     0.07600
Br872      Br  0.80533589  0.60124425  0.07317941    -0.03000
C873        C  0.95083421  0.62418492  0.35740487    -0.09600
C874        C  0.95041966  0.62360336  0.32161163     0.06600
C875        C  0.97170489  0.60025707  0.30442686    -0.03400
C876        C  0.99304012  0.57879438  0.32293446    -0.07800
C877        C  0.99435762  0.58024949  0.35854994     0.05700
C878        C  0.97270653  0.60293079  0.37584642    -0.02800
Br879      Br  0.97447272  0.60798135  0.42425212    -0.02100
H880        H  0.93431195  0.64150299  0.37115685     0.09600
H881        H  0.01064405  0.56248244  0.30926276     0.07600
Br882      Br  0.97593582  0.59891102  0.25582662    -0.03000
C883        C  0.73777586  0.88510500  0.35056958    -0.09600
C884        C  0.70262314  0.88472412  0.35701730     0.06600
C885        C  0.68264065  0.85921575  0.34172222    -0.03400
C886        C  0.69809328  0.83497141  0.32033589    -0.07800
C887        C  0.73325637  0.83583438  0.31380547     0.05700
C888        C  0.75299781  0.86142137  0.32900043    -0.02800
Br889      Br  0.80040724  0.86703560  0.31914627    -0.02500
H890        H  0.75355471  0.90487908  0.36152263     0.09600
H891        H  0.68265071  0.81510863  0.30909591     0.07600
Br892      Br  0.63432495  0.85743043  0.34741935    -0.03000
C893        C  0.62713801  0.06368202  0.17638741    -0.09600
C894        C  0.62463144  0.06719637  0.14102577     0.06600
C895        C  0.64649804  0.08980315  0.12429936    -0.03400
C896        C  0.67020937  0.10860793  0.14304077    -0.07800
C897        C  0.67216486  0.10590876  0.17872770     0.05700
C898        C  0.65022739  0.08286442  0.19533757    -0.02800
Br899      Br  0.64762945  0.07840444  0.24387259    -0.02500
H900        H  0.60935493  0.04741200  0.18966280     0.09600
H901        H  0.68682545  0.12586019  0.12954539     0.07600
Br902      Br  0.64238701  0.09851075  0.07658712    -0.03000
C903        C  0.70536556  0.25367311  0.10584760    -0.09600
C904        C  0.74113803  0.25361623  0.10419016     0.06600
C905        C  0.75727431  0.27772330  0.08315884    -0.03400
C906        C  0.73774935  0.29971712  0.06324789    -0.07800
C907        C  0.70208728  0.29844261  0.06346155     0.05700
C908        C  0.68588992  0.27582980  0.08577547    -0.02800
Br909      Br  0.63740343  0.27245445  0.08758623    -0.02500
H910        H  0.69240906  0.23613973  0.12260109     0.09600
H911        H  0.75059364  0.31644445  0.04560009     0.07600
Br912      Br  0.80567620  0.27975662  0.07753633    -0.03000
C913        C  0.74442160  0.00763270  0.37415129    -0.09600
C914        C  0.70919615  0.00535403  0.36925679     0.06600
C915        C  0.69410448  0.02479641  0.34349608    -0.03400
C916        C  0.71404643  0.04622143  0.32335387    -0.07800
C917        C  0.74949068  0.04801912  0.32760078     0.05700
C918        C  0.76465489  0.02827284  0.35346143    -0.02800
Br919      Br  0.81296805  0.02468555  0.35922040    -0.02500
H920        H  0.75662775  0.99107574  0.39242816     0.09600
H921        H  0.70171075  0.06115605  0.30386635     0.07600
Br922      Br  0.64706181  0.01957935  0.33219549    -0.03000
C923        C  0.21407388  0.54301847  0.17570193    -0.09600
C924        C  0.24913227  0.53928995  0.18166157     0.06600
C925        C  0.26657993  0.51207702  0.16611521    -0.03400
C926        C  0.24886839  0.48909178  0.14558889    -0.07800
C927        C  0.21372077  0.49250474  0.13991864     0.05700
C928        C  0.19636610  0.52005609  0.15496724    -0.02800
Br929      Br  0.14832861  0.52631812  0.15009401    -0.02500
H930        H  0.20036597  0.56422269  0.18691770     0.09600
H931        H  0.26253160  0.46762820  0.13479925     0.07600
Br932      Br  0.31396605  0.50356641  0.17385470    -0.03000
C933        C  0.41831197  0.62036572  0.05622819    -0.09600
C934        C  0.42136245  0.58474120  0.05798561     0.06600
C935        C  0.40651134  0.56746313  0.08540536    -0.03400
C936        C  0.38826577  0.58591009  0.10994084    -0.07800
C937        C  0.38453036  0.62162552  0.10774183     0.05700
C938        C  0.40015031  0.63880726  0.08056155    -0.02800
Br939      Br  0.39541009  0.68683366  0.07314794    -0.02500
H940        H  0.42903282  0.63389764  0.03481238     0.09600
H941        H  0.37692611  0.57216120  0.13087309     0.07600
Br942      Br  0.40821732  0.51876352  0.08915994    -0.03000
C943        C  0.16268494  0.58240835  0.32021885    -0.09600
C944        C  0.16133031  0.61800237  0.31572856     0.06600
C945        C  0.13709060  0.63701122  0.33416529    -0.03400
C946        C  0.11459305  0.62034267  0.35585181    -0.07800
C947        C  0.11525452  0.58473453  0.35960604     0.05700
C948        C  0.13987054  0.56572555  0.34187690    -0.02800
Br949      Br  0.14142646  0.51693297  0.34405875    -0.02500
H950        H  0.18152378  0.56743071  0.30672907     0.09600
H951        H  0.09511266  0.63519095  0.36858757     0.07600
Br952      Br  0.13108443  0.68528626  0.32857210    -0.03000
C953        C  0.38747377  0.86030612  0.37655460    -0.09600
C954        C  0.41892948  0.86870562  0.36227788     0.06600
C955        C  0.42651473  0.85714518  0.32930398    -0.03400
C956        C  0.40253652  0.83855431  0.31077888    -0.07800
C957        C  0.37019098  0.83134988  0.32423840     0.05700
C958        C  0.36313927  0.84191124  0.35809616    -0.02800
Br959      Br  0.32065853  0.83405658  0.38084991    -0.02500
H960        H  0.38079006  0.87034773  0.40135749     0.09600
H961        H  0.40913990  0.83040905  0.28530407     0.07600
Br962      Br  0.46839816  0.86896004  0.30743465    -0.03000
C963        C  0.23702177  0.07315951  0.44006272    -0.09600
C964        C  0.20353212  0.08376954  0.44565626     0.06600
C965        C  0.19184664  0.11359250  0.42992361    -0.03400
C966        C  0.21343033  0.13184676  0.40832017    -0.07800
C967        C  0.24727615  0.12133342  0.40250006     0.05700
C968        C  0.25896540  0.09152567  0.41909150    -0.02800
Br969      Br  0.30479395  0.07477179  0.41643406    -0.02500
H970        H  0.24676360  0.05126767  0.45366733     0.09600
H971        H  0.20353830  0.15445171  0.39610310     0.07600
Br972      Br  0.14739303  0.13145292  0.43916533    -0.03000
C973        C  0.45307109  0.10928190  0.14250746    -0.09600
C974        C  0.45497419  0.11371610  0.17797596     0.06600
C975        C  0.48109429  0.09739240  0.19592851    -0.03400
C976        C  0.50485287  0.07749124  0.17844249    -0.07800
C977        C  0.50341859  0.07334822  0.14290152     0.05700
C978        C  0.47694699  0.08923789  0.12492573    -0.02800
Br979      Br  0.47369657  0.08653707  0.07640127    -0.02500
H980        H  0.43280806  0.12138865  0.12840187     0.09600
H981        H  0.52544502  0.06609773  0.19268053     0.07600
Br982      Br  0.48723499  0.10384952  0.24387160    -0.03000
C983        C  0.20570926  0.33493598  0.18623866    -0.09600
C984        C  0.24004187  0.32719129  0.17949542     0.06600
C985        C  0.25507156  0.34085218  0.14980447    -0.03400
C986        C  0.23627448  0.36236792  0.12874318    -0.07800
C987        C  0.20276535  0.37133393  0.13663570     0.05700
C988        C  0.18729177  0.35704607  0.16535488    -0.02800
Br989      Br  0.14235839  0.37014279  0.17903830    -0.02500
H990        H  0.19324051  0.32450724  0.20839602     0.09600
H991        H  0.24884046  0.37450266  0.10748831     0.07600
Br992      Br  0.30192314  0.33478176  0.13778181    -0.03000
C993        C  0.36128984  0.28143275  0.08962004    -0.09600
C994        C  0.37809591  0.25618845  0.10839311     0.06600
C995        C  0.41387594  0.25315480  0.10479585    -0.03400
C996        C  0.43144559  0.27466042  0.08239614    -0.07800
C997        C  0.41415054  0.29926680  0.06339721     0.05700
C998        C  0.37884308  0.30276333  0.06754206    -0.02800
Br999      Br  0.35301498  0.33542488  0.04208879    -0.02500
H1000       H  0.33405156  0.28434476  0.09162540     0.09600
H1001       H  0.45841772  0.27091591  0.07844462     0.07600
Br1002     Br  0.44070158  0.22033168  0.12892206    -0.03000
C1003       C  0.42196851  0.98889764  0.31980184    -0.09600
C1004       C  0.42567730  0.98982326  0.35524904     0.06600
C1005       C  0.40998651  0.01621691  0.37371566    -0.03400
C1006       C  0.39035308  0.04059560  0.35664945    -0.07800
C1007       C  0.38609062  0.03940539  0.32107438     0.05700
C1008       C  0.40264470  0.01321052  0.30263817    -0.02800
Br1009     Br  0.39869520  0.00745426  0.25431408    -0.02500
H1010       H  0.43331005  0.96821826  0.30537242     0.09600
H1011       H  0.37858332  0.06078263  0.37136878     0.07600
Br1012     Br  0.41266499  0.01875507  0.42229062    -0.03000
C1013       C  0.99442799  0.31583705  0.32217386    -0.09600
C1014       C  0.99682744  0.30941360  0.35706708     0.06600
C1015       C  0.97583123  0.28466180  0.37170819    -0.03400
C1016       C  0.95288473  0.26669021  0.35141967    -0.07800
C1017       C  0.95098163  0.27228138  0.31611309     0.05700
C1018       C  0.97204781  0.29748815  0.30158401    -0.02800
Br1019     Br  0.97453659  0.30604225  0.25365305    -0.02500
H1020       H  0.01184318  0.33363489  0.31045746     0.09600
H1021       H  0.93695045  0.24772103  0.36336186     0.07600
Br1022     Br  0.98040218  0.27197647  0.41849400    -0.03000
C1023       C  0.11268500  0.25775204  0.35781416    -0.09600
C1024       C  0.11672002  0.29269106  0.36523945     0.06600
C1025       C  0.14609857  0.30938819  0.35374772    -0.03400
C1026       C  0.17043610  0.29123730  0.33495286    -0.07800
C1027       C  0.16622342  0.25637684  0.32740786     0.05700
C1028       C  0.13703351  0.23960187  0.33920155    -0.02800
Br1029     Br  0.12786079  0.19277547  0.32833327    -0.02500
H1030       H  0.08979825  0.24467145  0.36566105     0.09600
H1031       H  0.19298046  0.30443857  0.32637879     0.07600
Br1032     Br  0.15306558  0.35728070  0.36066420    -0.03000
C1033       C  0.45906358  0.74346477  0.84786514    -0.09600
C1034       C  0.45326274  0.75129198  0.81344980     0.06600
C1035       C  0.46927097  0.78051223  0.79978977    -0.03400
C1036       C  0.49095093  0.80017536  0.82014222    -0.07800
C1037       C  0.49707108  0.79174137  0.85416527     0.05700
C1038       C  0.48070874  0.76323654  0.86803060    -0.02800
Br1039     Br  0.48928059  0.74882087  0.91370480    -0.02500
H1040       H  0.44689062  0.72162373  0.85928101     0.09600
H1041       H  0.50466373  0.82116417  0.80877496     0.07600
Br1042     Br  0.46526146  0.79384227  0.75310682    -0.03000
C1043       C  0.64386438  0.73303552  0.83993371    -0.09600
C1044       C  0.66699632  0.75124847  0.81993335     0.06600
C1045       C  0.66700250  0.78736475  0.82215195    -0.03400
C1046       C  0.64232337  0.80426917  0.84175029    -0.07800
C1047       C  0.61823769  0.78578383  0.86020250     0.05700
C1048       C  0.61993081  0.74992022  0.86005655    -0.02800
Br1049     Br  0.58989103  0.72281377  0.88721707    -0.02500
H1050       H  0.64424525  0.70543310  0.83985257     0.09600
H1051       H  0.64131613  0.83186221  0.84175384     0.07600
Br1052     Br  0.70111731  0.81512048  0.80110443    -0.03000
C1053       C  0.24465201  0.38569245  0.86249851    -0.09600
C1054       C  0.20912014  0.38336432  0.86474073     0.06600
C1055       C  0.19240394  0.35716555  0.84710877    -0.03400
C1056       C  0.21120349  0.33395812  0.82756464    -0.07800
C1057       C  0.24677545  0.33648178  0.82490695     0.05700
C1058       C  0.26352068  0.36263515  0.84288701    -0.02800
Br1059     Br  0.31150846  0.37026098  0.83912924    -0.02500
H1060       H  0.25764782  0.40672968  0.87472396     0.09600
H1061       H  0.19784536  0.31381946  0.81430117     0.07600
Br1062     Br  0.14383062  0.35411597  0.84628153    -0.03000
C1063       C  0.22439577  0.55330625  0.84669026    -0.09600
C1064       C  0.22668142  0.55001322  0.81116126     0.06600
C1065       C  0.20885286  0.52361240  0.79482620    -0.03400
C1066       C  0.19075073  0.50010076  0.81427098    -0.07800
C1067       C  0.18973197  0.50256077  0.84990406     0.05700
C1068       C  0.20604209  0.52993141  0.86606922    -0.02800
Br1069     Br  0.20695872  0.53450976  0.91457972    -0.02500
H1070       H  0.23725246  0.57404646  0.85953707     0.09600
H1071       H  0.17897396  0.47857976  0.80164298     0.07600
Br1072     Br  0.21108389  0.51639519  0.74662215    -0.03000
C1073       C  0.61990785  0.06776183  0.81654994    -0.09600
C1074       C  0.61935862  0.06613615  0.85214573     0.06600
C1075       C  0.64345533  0.08478263  0.87076397    -0.03400
C1076       C  0.66702104  0.10522601  0.85359456    -0.07800
C1077       C  0.66688864  0.10776856  0.81784336     0.05700
C1078       C  0.64300044  0.08841434  0.79935713    -0.02800
Br1079     Br  0.63790896  0.09133140  0.75095625    -0.02500
H1080       H  0.60080517  0.05428032  0.80200034     0.09600
H1081       H  0.68539379  0.11940931  0.86837977     0.07600
Br1082     Br  0.64318727  0.08565524  0.91949515    -0.03000
C1083       C  0.49084744  0.10299307  0.86784356    -0.09600
C1084       C  0.49819059  0.06993867  0.85658088     0.06600
C1085       C  0.48279514  0.05761523  0.82691351    -0.03400
C1086       C  0.46099047  0.07869185  0.80847222    -0.07800
C1087       C  0.45403204  0.11237417  0.81911033     0.05700
C1088       C  0.46885773  0.12417332  0.84973083    -0.02800
Br1089     Br  0.46221474  0.16918929  0.86789269    -0.02500
H1090       H  0.50370919  0.11301361  0.89003887     0.09600
H1091       H  0.44939156  0.06848344  0.78569610     0.07600
Br1092     Br  0.49211002  0.01262659  0.81000498    -0.03000
C1093       C  0.89971761  0.55162513  0.85431184    -0.09600
C1094       C  0.89511392  0.54879459  0.81895745     0.06600
C1095       C  0.91022134  0.52135974  0.80145774    -0.03400
C1096       C  0.92815710  0.49670368  0.81952863    -0.07800
C1097       C  0.93166062  0.49878582  0.85500455     0.05700
C1098       C  0.91795653  0.52700500  0.87238068    -0.02800
Br1099     Br  0.92089205  0.53173428  0.92081612    -0.02500
H1100       H  0.88895454  0.57307748  0.86800909     0.09600
H1101       H  0.93819520  0.47483296  0.80591421     0.07600
Br1102     Br  0.90470828  0.51444377  0.75349698    -0.03000
C1103       C  0.89141576  0.36614115  0.88182315    -0.09600
C1104       C  0.92024146  0.37792679  0.86477850     0.06600
C1105       C  0.92563635  0.36793838  0.83086702    -0.03400
C1106       C  0.90239254  0.34667815  0.81452007    -0.07800
C1107       C  0.87264183  0.33555547  0.83093774     0.05700
C1108       C  0.86748014  0.34549914  0.86530169    -0.02800
Br1109     Br  0.82774081  0.33426397  0.89111215    -0.02500
H1110       H  0.88621594  0.37509844  0.90737509     0.09600
H1111       H  0.90746316  0.33947011  0.78842791     0.07600
Br1112     Br  0.96332374  0.38485205  0.80498262    -0.03000
C1113       C  0.91081502  0.33278272  0.17498240    -0.09600
C1114       C  0.87535916  0.33226101  0.17031215     0.06600
C1115       C  0.86078372  0.35399299  0.14586872    -0.03400
C1116       C  0.88147742  0.37611949  0.12753915    -0.07800
C1117       C  0.91659243  0.37750371  0.13321427     0.05700
C1118       C  0.93138549  0.35528337  0.15678228    -0.02800
Br1119     Br  0.97890807  0.35711327  0.16715373    -0.02500
H1120       H  0.92262277  0.31580268  0.19308742     0.09600
H1121       H  0.86975434  0.39413904  0.11034693     0.07600
Br1122     Br  0.81268958  0.35760021  0.13866643    -0.03000
C1123       C  0.88345511  0.50171053  0.13836117    -0.09600
C1124       C  0.91876576  0.49864335  0.14213158     0.06600
C1125       C  0.93512694  0.51836050  0.16698799    -0.03400
C1126       C  0.91610692  0.54030223  0.18785689    -0.07800
C1127       C  0.88056735  0.54312218  0.18451616     0.05700
C1128       C  0.86431934  0.52353527  0.15905284    -0.02800
Br1129     Br  0.81597476  0.52306775  0.15237541    -0.02500
H1130       H  0.87039279  0.48564560  0.12015258     0.09600
H1131       H  0.92931582  0.55535510  0.20673180     0.07600
Br1132     Br  0.98293210  0.51419787  0.17499520    -0.03000
C1133       C  0.65709267  0.78494726  0.18625099    -0.09600
C1134       C  0.66172057  0.75026627  0.17789971     0.06600
C1135       C  0.64625465  0.73755667  0.14787685    -0.03400
C1136       C  0.62574013  0.75892039  0.12831651    -0.07800
C1137       C  0.62028771  0.79289971  0.13762141     0.05700
C1138       C  0.63661060  0.80609711  0.16642829    -0.02800
Br1139     Br  0.62968432  0.85243990  0.18063925    -0.02500
H1140       H  0.66923236  0.79579038  0.20844469     0.09600
H1141       H  0.61215557  0.74832745  0.10682872     0.07600
Br1142     Br  0.64993810  0.69118020  0.13228102    -0.03000
C1143       C  0.47214690  0.79316837  0.13406138    -0.09600
C1144       C  0.50029207  0.80543879  0.15186648     0.06600
C1145       C  0.50133397  0.80165467  0.18757337    -0.03400
C1146       C  0.47569092  0.78376553  0.20438850    -0.07800
C1147       C  0.44872525  0.76935699  0.18625332     0.05700
C1148       C  0.44633344  0.77554024  0.15095215    -0.02800
Br1149     Br  0.40740203  0.76263632  0.12477329    -0.02500
H1150       H  0.47079243  0.79619050  0.10676410     0.09600
H1151       H  0.47711753  0.78065575  0.23167104     0.07600
Br1152     Br  0.53699935  0.82079119  0.21481736    -0.03000
C1153       C  0.87193287  0.81759474  0.43522318    -0.09600
C1154       C  0.90699143  0.81338855  0.43929803     0.06600
C1155       C  0.92410953  0.78896790  0.41957694    -0.03400
C1156       C  0.90602039  0.76859066  0.39673525    -0.07800
C1157       C  0.87066119  0.77223613  0.39268031     0.05700
C1158       C  0.85371187  0.79786247  0.41187944    -0.02800
Br1159     Br  0.80585330  0.80732524  0.40889902    -0.02500
H1160       H  0.85845601  0.83575121  0.45110529     0.09600
H1161       H  0.91991214  0.74985835  0.38196315     0.07600
Br1162     Br  0.97186201  0.78100483  0.42471847    -0.03000
C1163       C  0.92341601  0.77191636  0.56152308    -0.09600
C1164       C  0.91821241  0.80729183  0.56005054     0.06600
C1165       C  0.89657602  0.82297210  0.58374667    -0.03400
C1166       C  0.87970880  0.80302487  0.60772985    -0.07800
C1167       C  0.88356886  0.76739419  0.60828128     0.05700
C1168       C  0.90657455  0.75192637  0.58552531    -0.02800
Br1169     Br  0.91415505  0.70360955  0.58421081    -0.02500
H1170       H  0.93946414  0.75956172  0.54277739     0.09600
H1171       H  0.86354431  0.81545480  0.62617176     0.07600
Br1172     Br  0.88730014  0.87096183  0.58268085    -0.03000
C1173       C  0.86365311  0.10871485  0.58940864    -0.09600
C1174       C  0.88072713  0.13550986  0.60587067     0.06600
C1175       C  0.91592838  0.13983448  0.59936451    -0.03400
C1176       C  0.93270728  0.11796853  0.57658407    -0.07800
C1177       C  0.91522696  0.09183997  0.55986605     0.05700
C1178       C  0.88041767  0.08735971  0.56640845    -0.02800
Br1179     Br  0.85434111  0.05304336  0.54342754    -0.02500
H1180       H  0.83688516  0.10452368  0.59405245     0.09600
H1181       H  0.95920011  0.12240174  0.57068055     0.07600
Br1182     Br  0.94317340  0.17451124  0.62048878    -0.03000
C1183       C  0.88159882  0.08371546  0.43388195    -0.09600
C1184       C  0.91654294  0.08810808  0.43866754     0.06600
C1185       C  0.93373322  0.11326205  0.42017263    -0.03400
C1186       C  0.91579545  0.13366846  0.39730162    -0.07800
C1187       C  0.88044406  0.13013719  0.39324802     0.05700
C1188       C  0.86336498  0.10471082  0.41193382    -0.02800
Br1189     Br  0.81483463  0.10004844  0.41247952    -0.02500
H1190       H  0.86793248  0.06555993  0.44940885     0.09600
H1191       H  0.92951190  0.15286606  0.38317078     0.07600
Br1192     Br  0.98069850  0.12322800  0.42833298    -0.03000
C1193       C  0.18113189  0.80641753  0.58782287    -0.09600
C1194       C  0.19922059  0.81397974  0.55822512     0.06600
C1195       C  0.23421118  0.80629419  0.55649766    -0.03400
C1196       C  0.24992575  0.78919515  0.58315620    -0.07800
C1197       C  0.23141620  0.77948364  0.61186670     0.05700
C1198       C  0.19693541  0.78937682  0.61467283    -0.02800
Br1199     Br  0.17033809  0.78156579  0.65479318    -0.02500
H1200       H  0.15431324  0.81235496  0.58946225     0.09600
H1201       H  0.27659676  0.78277665  0.58106713     0.07600
Br1202     Br  0.26189903  0.81844761  0.51819627    -0.03000
C1203       C  0.20935169  0.74102462  0.41701430    -0.09600
C1204       C  0.22067436  0.75911853  0.38867806     0.06600
C1205       C  0.21057511  0.79345822  0.38461670    -0.03400
C1206       C  0.19154276  0.80969891  0.41000110    -0.07800
C1207       C  0.18243187  0.79225229  0.43956633     0.05700
C1208       C  0.19062718  0.75724478  0.44246496    -0.02800
Br1209     Br  0.17754143  0.73017126  0.48088839    -0.02500
H1210       H  0.21586452  0.71434260  0.41981628     0.09600
H1211       H  0.18542928  0.83649001  0.40740706     0.07600
Br1212     Br  0.22104299  0.81917290  0.34456897    -0.03000
loop_ 
_geom_bond_atom_site_label_1 
_geom_bond_atom_site_label_2 
_geom_bond_distance 
_geom_bond_site_symmetry_2 
_ccdc_geom_bond_type 
C1            N2   1.359       .  A
C1            N6   1.345       .  A
C1         C1194   1.468       .  S
N2            C3   1.366       .  A
C3            N4   1.368       .  A
C3          C549   1.490       .  S
N4            C5   1.363       .  A
C5            N6   1.345       .  A
C5         C1207   1.473       .  S
C7            N8   1.363       .  A
C7           N12   1.345       .  A
C7         C1177   1.468       .  S
N8            C9   1.368       .  A
C9           N10   1.365       .  A
C9          C551   1.487       .  S
N10          C11   1.359       .  A
C11          N12   1.345       .  A
C11        C1184   1.462       .  S
C13          N14   1.361       .  A
C13          N18   1.347       .  A
C13        C1164   1.465       .  S
N14          C15   1.366       .  A
C15          N16   1.366       .  A
C15         C552   1.489       .  S
N16          C17   1.362       .  A
C17          N18   1.347       .  A
C17        C1154   1.467       .  S
C19          N20   1.346       .  A
C19          N24   1.364       .  A
C19        C1144   1.476       .  S
N20          C21   1.345       .  A
C21          N22   1.360       .  A
C21        C1137   1.460       .  S
N22          C23   1.366       .  A
C23          N24   1.368       .  A
C23         C584   1.489       .  S
C25          N26   1.344       .  A
C25          N30   1.360       .  A
C25        C1117   1.463       .  S
N26          C27   1.344       .  A
C27          N28   1.365       .  A
C27        C1124   1.474       .  S
N28          C29   1.371       .  A
C29          N30   1.366       .  A
C29         C618   1.492   1_655  S
C31          N32   1.363       .  A
C31          N36   1.345       .  A
C31        C1104   1.468       .  S
N32          C33   1.369       .  A
C33          N34   1.365       .  A
C33         C619   1.489   1_655  S
N34          C35   1.360       .  A
C35          N36   1.346       .  A
C35        C1097   1.472       .  S
C37          N38   1.363       .  A
C37          N42   1.347       .  A
C37        C1074   1.473       .  S
N38          C39   1.368       .  A
C39          N40   1.365       .  A
C39         C586   1.487   1_545  S
N40          C41   1.359       .  A
C41          N42   1.345       .  A
C41        C1084   1.461       .  S
C43          N44   1.345       .  A
C43          N48   1.364       .  A
C43        C1054   1.471       .  S
N44          C45   1.345       .  A
C45          N46   1.362       .  A
C45        C1067   1.468       .  S
N46          C47   1.366       .  A
C47          N48   1.369       .  A
C47         C620   1.492       .  S
C49          N50   1.346       .  A
C49          N54   1.364       .  A
C49        C1037   1.471       .  S
N50          C51   1.347       .  A
C51          N52   1.363       .  A
C51        C1047   1.473       .  S
N52          C53   1.369       .  A
C53          N54   1.370       .  A
C53         C585   1.497       .  S
C55          N56   1.366       .  A
C55          N60   1.346       .  A
C55        C1024   1.480       .  S
N56          C57   1.370       .  A
C57          N58   1.366       .  A
C57         C688   1.495       .  S
N58          C59   1.360       .  A
C59          N60   1.344       .  A
C59        C1014   1.463   1_455  S
O61         Mg63   2.166       .  S
O61         Mg69   2.145       .  S
O61          C96   1.234       .  S
C62          O75   1.234       .  S
C62          O99   1.270       .  A
C62         H101   1.081       .  S
Mg63         O92   2.151       .  S
Mg63        O107   2.290       .  S
Mg63        O103   2.264       .  S
Mg63         O74   2.308       .  S
O64        Mg106   2.159       .  S
O64         Mg89   2.154       .  S
O64          C85   1.234       .  S
O65          C96   1.271       .  A
O65         Mg89   2.321       .  S
C66        C1007   1.489       .  S
C66          O68   1.269       .  A
C66          O80   1.276       .  A
O67          C95   1.272       .  A
O67         Mg69   2.313       .  S
O68        Mg100   2.249       .  S
Mg69         O75   2.164       .  S
Mg69         O83   2.251       .  S
Mg69         O71   2.281       .  S
C70         C967   1.494       .  S
C70         O108   1.269       .  A
C70          O76   1.272       .  A
O71          C78   1.268       .  A
H72          C85   1.081       .  S
C73          O87   1.233       .  S
C73          O88   1.268       .  A
C73          H98   1.081       .  S
O74          C97   1.269       .  A
O75         Mg89   2.158       .  S
O76        Mg106   2.292       .  S
C77        C1027   1.479       .  S
C77          O90   1.270       .  A
C77          O82   1.272       .  A
C78         C984   1.491       .  S
C78         O105   1.269       .  A
Mg79         O86   2.162       .  S
Mg79         O87   2.154       .  S
Mg79         O80   2.311       .  S
Mg79         O81   2.313       .  S
Mg79        O108   2.267       .  S
O81          C85   1.271       .  A
O82         Mg89   2.291       .  S
O83         C102   1.268       .  A
O84         C104   1.273       .  A
O84        Mg100   2.302       .  S
O86        Mg100   2.171       .  S
O86          C97   1.233       .  S
O87        Mg106   2.165       .  S
O88        Mg100   2.301       .  S
Mg89        O105   2.271       .  S
O90        Mg106   2.263       .  S
H91          C96   1.081       .  S
O92        Mg100   2.156       .  S
O92          C95   1.235       .  S
H93          C95   1.081       .  S
H94          C97   1.081       .  S
O99        Mg106   2.308       .  S
C102        C994   1.490       .  S
C102        O107   1.269       .  A
O103        C104   1.269       .  A
C104        C974   1.479       .  S
C109        N110   1.345       .  A
C109        N114   1.363       .  A
C109       C1004   1.475       .  S
N110        C111   1.344       .  A
C111        N112   1.365       .  A
C111        C954   1.469       .  S
N112        C113   1.371       .  A
C113        N114   1.368       .  A
C113        C722   1.496       .  S
O115       Mg117   2.169       .  S
O115       Mg123   2.162       .  S
O115        C150   1.234       .  S
C116        O129   1.235       .  S
C116        O153   1.273       .  A
C116        H155   1.081       .  S
Mg117       O146   2.149       .  S
Mg117       O161   2.275       .  S
Mg117       O157   2.263       .  S
Mg117       O128   2.308       .  S
O118       Mg160   2.138       .  S
O118       Mg143   2.144       .  S
O118        C139   1.234       .  S
O119        C150   1.271       .  A
O119       Mg143   2.311       .  S
C120        C937   1.483       .  S
C120        O122   1.270       .  A
C120        O134   1.271       .  A
O121        C149   1.270       .  A
O121       Mg123   2.315       .  S
O122       Mg154   2.264       .  S
Mg123       O129   2.158       .  S
Mg123       O137   2.271       .  S
Mg123       O125   2.286       .  S
C124        C924   1.479       .  S
C124        O162   1.268       .  A
C124        O130   1.271       .  A
O125        C132   1.270       .  A
H126        C139   1.081       .  S
C127        O141   1.233       .  S
C127        O142   1.268       .  A
C127        H152   1.081       .  S
O128        C151   1.271       .  A
O129       Mg143   2.157       .  S
O130       Mg160   2.283       .  S
C131        C944   1.481       .  S
C131        O144   1.268       .  A
C131        O136   1.267       .  A
C132       C1204   1.472       .  S
C132        O159   1.266       .  A
Mg133       O140   2.159       .  S
Mg133       O141   2.159       .  S
Mg133       O134   2.281       .  S
Mg133       O135   2.305       .  S
Mg133       O162   2.254       .  S
O135        C139   1.269       .  A
O136       Mg143   2.276       .  S
O137        C156   1.266       .  A
O138        C158   1.273       .  A
O138       Mg154   2.294       .  S
O140       Mg154   2.160       .  S
O140        C151   1.235       .  S
O141       Mg160   2.155       .  S
O142       Mg154   2.303       .  S
Mg143       O159   2.235       .  S
O144       Mg160   2.272       .  S
H145        C150   1.081       .  S
O146       Mg154   2.148       .  S
O146        C149   1.233       .  S
H147        C149   1.081       .  S
H148        C151   1.081       .  S
O153       Mg160   2.323       .  S
C156        C957   1.496       .  S
C156        O161   1.270       .  A
O157        C158   1.270       .  A
C158       C1147   1.480       .  S
O163       Mg165   2.153       .  S
O163       Mg171   2.148       .  S
O163        C198   1.232       .  S
C164        O177   1.236       .  S
C164        O201   1.273       .  A
C164        H203   1.081       .  S
Mg165       O194   2.137       .  S
Mg165       O209   2.271       .  S
Mg165       O205   2.241       .  S
Mg165       O176   2.315       .  S
O166       Mg208   2.138       .  S
O166       Mg191   2.153       .  S
O166        C187   1.235       .  S
O167        C198   1.268       .  A
O167       Mg191   2.306       .  S
C168       C1017   1.485       .  S
C168        O170   1.267       .  A
C168        O182   1.270       .  A
O169        C197   1.272       .  A
O169       Mg171   2.322       .  S
O170       Mg202   2.251       .  S
Mg171       O177   2.172       .  S
Mg171       O185   2.288       .  S
Mg171       O173   2.291       .  S
C172       C1187   1.481       .  S
C172        O210   1.266       .  A
C172        O178   1.266       .  A
O173        C180   1.272       .  A
H174        C187   1.081       .  S
C175        O189   1.233       .  S
C175        O190   1.270       .  A
C175        H200   1.081       .  S
O176        C199   1.272       .  A
O177       Mg191   2.164       .  S
O178       Mg208   2.270       .  S
C179        C917   1.487       .  S
C179        O192   1.265       .  A
C179        O184   1.273       .  A
C180        C897   1.487       .  S
C180        O207   1.268       .  A
Mg181       O188   2.149       .  S
Mg181       O189   2.145       .  S
Mg181       O182   2.284       .  S
Mg181       O183   2.319       .  S
Mg181       O210   2.261       .  S
O183        C187   1.272       .  A
O184       Mg191   2.301       .  S
O185        C204   1.269       .  A
O186        C206   1.269       .  A
O186       Mg202   2.278       .  S
O188       Mg202   2.145       .  S
O188        C199   1.236       .  S
O189       Mg208   2.147       .  S
O190       Mg202   2.310       .  S
Mg191       O207   2.251       .  S
O192       Mg208   2.243       .  S
H193        C198   1.081       .  S
O194       Mg202   2.152       .  S
O194        C197   1.235       .  S
H195        C197   1.081       .  S
H196        C199   1.081       .  S
O201       Mg208   2.318       .  S
C204        C904   1.488       .  S
C204        O209   1.267       .  A
O205        C206   1.265       .  A
C206       C1114   1.478       .  S
C211        N212   1.363       .  A
C211        N216   1.341       .  A
C211        C914   1.468   1_565  S
N212        C213   1.371       .  A
C213        N214   1.370       .  A
C213        C719   1.496       .  S
N214        C215   1.363       .  A
C215        N216   1.345       .  A
C215        C884   1.479       .  S
O217       Mg219   2.149       .  S
O217       Mg225   2.158       .  S
O217        C252   1.235       .  S
C218        O231   1.234       .  S
C218        O255   1.270       .  A
C218        H257   1.081       .  S
Mg219       O248   2.159       .  S
Mg219       O263   2.278       .  S
Mg219       O259   2.239       .  S
Mg219       O230   2.307       .  S
O220       Mg262   2.160       .  S
O220       Mg245   2.177       .  S
O220        C241   1.234       .  S
O221        C252   1.272       .  A
O221       Mg245   2.313       .  S
C222        C887   1.475       .  S
C222        O224   1.267       .  A
C222        O236   1.270       .  A
O223        C251   1.269       .  A
O223       Mg225   2.303       .  S
O224       Mg256   2.266       .  S
Mg225       O231   2.145       .  S
Mg225       O239   2.254       .  S
Mg225       O227   2.285       .  S
C226       C1157   1.490       .  S
C226        O264   1.264       .  A
C226        O232   1.276       .  A
O227        C234   1.270       .  A
H228        C241   1.081       .  S
C229        O243   1.236       .  S
C229        O244   1.273       .  A
C229        H254   1.081       .  S
O230        C253   1.269       .  A
O231       Mg245   2.134       .  S
O232       Mg262   2.312       .  S
C233        C874   1.484       .  S
C233        O246   1.271       .  A
C233        O238   1.269       .  A
C234       C1127   1.490       .  S
C234        O261   1.272       .  A
Mg235       O242   2.133       .  S
Mg235       O243   2.156       .  S
Mg235       O236   2.284       .  S
Mg235       O237   2.312       .  S
Mg235       O264   2.228       .  S
O237        C241   1.270       .  A
O238       Mg245   2.279       .  S
O239        C258   1.268       .  A
O240        C260   1.270       .  A
O240       Mg256   2.280       .  S
O242       Mg256   2.137       .  S
O242        C253   1.233       .  S
O243       Mg262   2.167       .  S
O244       Mg256   2.322       .  S
Mg245       O261   2.284       .  S
O246       Mg262   2.280       .  S
H247        C252   1.081       .  S
O248       Mg256   2.158       .  S
O248        C251   1.234       .  S
H249        C251   1.081       .  S
H250        C253   1.081       .  S
O255       Mg262   2.316       .  S
C258        C864   1.480       .  S
C258        O263   1.270       .  A
O259        C260   1.264       .  A
C260       C1134   1.488       .  S
C265        N266   1.344       .  A
C265        N270   1.363       .  A
C265        C947   1.474       .  S
N266        C267   1.344       .  A
C267        N268   1.364       .  A
C267        C877   1.472   1_455  S
N268        C269   1.371       .  A
C269        N270   1.369       .  A
C269        C685   1.495       .  S
C271        N272   1.364       .  A
C271        N276   1.345       .  A
C271        C997   1.470       .  S
N272        C273   1.370       .  A
C273        N274   1.369   1_554  A
C273        C653   1.495       .  S
N274        C275   1.363       .  A
C275        N276   1.344   1_556  A
C275        C854   1.470       .  S
O277       Mg279   2.162       .  S
O277       Mg285   2.162       .  S
O277        C312   1.235       .  S
C278        O291   1.235       .  S
C278        O315   1.271       .  A
C278        H317   1.081       .  S
Mg279       O308   2.146       .  S
Mg279       O323   2.294       .  S
Mg279       O319   2.256       .  S
Mg279       O290   2.317       .  S
O280       Mg322   2.143       .  S
O280       Mg305   2.152       .  S
O280        C301   1.232       .  S
O281        C312   1.271       .  A
O281       Mg305   2.311       .  S
C282        C847   1.483       .  S
C282        O284   1.268       .  A
C282        O296   1.273       .  A
O283        C311   1.268       .  A
O283       Mg285   2.308       .  S
O284       Mg316   2.251       .  S
Mg285       O291   2.141       .  S
Mg285       O299   2.242       .  S
Mg285       O287   2.294       .  S
C286       C1087   1.487       .  S
C286        O324   1.270       .  A
C286        O292   1.272       .  A
O287        C294   1.272       .  A
H288        C301   1.081       .  S
C289        O303   1.234       .  S
C289        O304   1.270       .  A
C289        H314   1.081       .  S
O290        C313   1.272       .  A
O291       Mg305   2.143       .  S
O292       Mg322   2.291       .  S
C293        C857   1.487       .  S
C293        O306   1.272       .  A
C293        O298   1.266       .  A
C294       C1057   1.482       .  S
C294        O321   1.267       .  A
Mg295       O302   2.146       .  S
Mg295       O303   2.167       .  S
Mg295       O296   2.295       .  S
Mg295       O297   2.305       .  S
Mg295       O324   2.245       .  S
O297        C301   1.268       .  A
O298       Mg305   2.273       .  S
O299        C318   1.269       .  A
O300        C320   1.266       .  A
O300       Mg316   2.269       .  S
O302       Mg316   2.151       .  S
O302        C313   1.235       .  S
O303       Mg322   2.166       .  S
O304       Mg316   2.306       .  S
Mg305       O321   2.249       .  S
O306       Mg322   2.286       .  S
H307        C312   1.081       .  S
O308       Mg316   2.155       .  S
O308        C311   1.232       .  S
H309        C311   1.081       .  S
H310        C313   1.081       .  S
O315       Mg322   2.314       .  S
C318        C837   1.489       .  S
C318        O323   1.269       .  A
O319        C320   1.267       .  A
C320        C824   1.484       .  S
C325        N326   1.364       .  A
C325        N330   1.345       .  A
C325        C844   1.473       .  S
N326        C327   1.368       .  A
C327        N328   1.365       .  A
C327        C721   1.487       .  S
N328        C329   1.358       .  A
C329        N330   1.345       .  A
C329        C814   1.458       .  S
O331       Mg333   2.155       .  S
O331       Mg339   2.140       .  S
O331        C366   1.234       .  S
C332        O345   1.232       .  S
C332        O369   1.268       .  A
C332        H371   1.081       .  S
Mg333       O362   2.168       .  S
Mg333       O377   2.282       .  S
Mg333       O373   2.250       .  S
Mg333       O344   2.300       .  S
O334       Mg376   2.168       .  S
O334       Mg359   2.155       .  S
O334        C355   1.236       .  S
O335        C366   1.271       .  A
O335       Mg359   2.316       .  S
C336        C804   1.491       .  S
C336        O338   1.266       .  A
C336        O350   1.267       .  A
O337        C365   1.273       .  A
O337       Mg339   2.320       .  S
O338       Mg370   2.270       .  S
Mg339       O345   2.153       .  S
Mg339       O353   2.240       .  S
Mg339       O341   2.282       .  S
C340       C1064   1.474       .  S
C340        O378   1.267       .  A
C340        O346   1.272       .  A
O341        C348   1.267       .  A
H342        C355   1.081       .  S
C343        O357   1.234       .  S
C343        O358   1.270       .  A
C343        H368   1.081       .  S
O344        C367   1.267       .  A
O345       Mg359   2.156       .  S
O346       Mg376   2.282       .  S
C347        C794   1.477       .  S
C347        O360   1.271       .  A
C347        O352   1.271       .  A
C348       C1034   1.493       .  S
C348        O375   1.269       .  A
Mg349       O356   2.159       .  S
Mg349       O357   2.146       .  S
Mg349       O350   2.257       .  S
Mg349       O351   2.310       .  S
Mg349       O378   2.244       .  S
O351        C355   1.272       .  A
O352       Mg359   2.277       .  S
O353        C372   1.266       .  A
O354        C374   1.270       .  A
O354       Mg370   2.280       .  S
O356       Mg370   2.169       .  S
O356        C367   1.232       .  S
O357       Mg376   2.149       .  S
O358       Mg370   2.313       .  S
Mg359       O375   2.272       .  S
O360       Mg376   2.271       .  S
H361        C366   1.081       .  S
O362       Mg370   2.157       .  S
O362        C365   1.236       .  S
H363        C365   1.081       .  S
H364        C367   1.081       .  S
O369       Mg376   2.305       .  S
C372        C817   1.483       .  S
C372        O377   1.269       .  A
O373        C374   1.268       .  A
C374       C1197   1.475       .  S
C379        N380   1.344       .  A
C379        N384   1.362       .  A
C379        C807   1.465       .  S
N380        C381   1.343       .  A
C381        N382   1.365       .  A
C381        C787   1.470       .  S
N382        C383   1.371       .  A
C383        N384   1.369       .  A
C383        C686   1.497       .  S
C385        N386   1.346       .  A
C385        N390   1.362       .  A
C385        C834   1.467       .  S
N386        C387   1.347       .  A
C387        N388   1.363       .  A
C387        C774   1.475       .  S
N388        C389   1.368       .  A
C389        N390   1.367       .  A
C389        C687   1.493       .  S
O391       Mg393   2.157       .  S
O391       Mg399   2.156       .  S
O391        C426   1.234       .  S
C392        O405   1.237       .  S
C392        O429   1.274       .  A
C392        H431   1.081       .  S
Mg393       O422   2.142       .  S
Mg393       O437   2.286       .  S
Mg393       O433   2.255       .  S
Mg393       O404   2.316       .  S
O394       Mg436   2.135       .  S
O394       Mg419   2.156       .  S
O394        C415   1.234       .  S
O395        C426   1.269       .  A
O395       Mg419   2.306       .  S
C396       C1077   1.487       .  S
C396        O398   1.268       .  A
C396        O410   1.273       .  A
O397        C425   1.270       .  A
O397       Mg399   2.313       .  S
O398       Mg430   2.253       .  S
Mg399       O405   2.155       .  S
Mg399       O413   2.267       .  S
Mg399       O401   2.286       .  S
C400        C754   1.480       .  S
C400        O438   1.266       .  A
C400        O406   1.269       .  A
O401        C408   1.272       .  A
H402        C415   1.081       .  S
C403        O417   1.233       .  S
C403        O418   1.269       .  A
C403        H428   1.081       .  S
O404        C427   1.272       .  A
O405       Mg419   2.151       .  S
O406       Mg436   2.274       .  S
C407       C1107   1.495       .  S
C407        O420   1.267       .  A
C407        O412   1.270       .  A
C408        C777   1.485       .  S
C408        O435   1.270       .  A
Mg409       O416   2.152       .  S
Mg409       O417   2.167       .  S
Mg409       O410   2.299       .  S
Mg409       O411   2.318       .  S
Mg409       O438   2.259       .  S
O411        C415   1.271       .  A
O412       Mg419   2.281       .  S
O413        C432   1.267       .  A
O414        C434   1.271       .  A
O414       Mg430   2.285       .  S
O416       Mg430   2.155       .  S
O416        C427   1.235       .  S
O417       Mg436   2.173       .  S
O418       Mg430   2.310       .  S
Mg419       O435   2.265       .  S
O420       Mg436   2.280       .  S
H421        C426   1.081       .  S
O422       Mg430   2.155       .  S
O422        C425   1.234       .  S
H423        C425   1.081       .  S
H424        C427   1.081       .  S
O429       Mg436   2.324       .  S
C432       C1174   1.489       .  S
C432        O437   1.271       .  A
O433        C434   1.267       .  A
C434        C764   1.486       .  S
C439        N440   1.363       .  A
C439        N444   1.347       .  A
C439        C767   1.468   1_565  S
N440        C441   1.368       .  A
C441        N442   1.367       .  A
C441        C720   1.494       .  S
N442        C443   1.362       .  A
C443        N444   1.346       .  A
C443        C744   1.468       .  S
O445       Mg447   2.160       .  S
O445       Mg453   2.157       .  S
O445        C480   1.235       .  S
C446        O459   1.233       .  S
C446        O483   1.268       .  A
C446        H485   1.081       .  S
Mg447       O476   2.162       .  S
Mg447       O491   2.290       .  S
Mg447       O487   2.282       .  S
Mg447       O458   2.315       .  S
O448       Mg490   2.162       .  S
O448       Mg473   2.158       .  S
O448        C469   1.233       .  S
O449        C480   1.272       .  A
O449       Mg473   2.319       .  S
C450       C1044   1.485       .  S
C450        O452   1.269       .  A
C450        O464   1.270       .  A
O451        C479   1.271       .  A
O451       Mg453   2.311       .  S
O452       Mg484   2.257       .  S
Mg453       O459   2.148       .  S
Mg453       O467   2.243       .  S
Mg453       O455   2.285       .  S
C454        C747   1.493       .  S
C454        O492   1.272       .  A
C454        O460   1.270       .  A
O455        C462   1.269       .  A
H456        C469   1.081       .  S
C457        O471   1.235       .  S
C457        O472   1.271       .  A
C457        H482   1.081       .  S
O458        C481   1.270       .  A
O459       Mg473   2.144       .  S
O460       Mg490   2.283       .  S
C461       C1167   1.477       .  S
C461        O474   1.270       .  A
C461        O466   1.270       .  A
C462        C784   1.493       .  S
C462        O489   1.268       .  A
Mg463       O470   2.167       .  S
Mg463       O471   2.157       .  S
Mg463       O464   2.286       .  S
Mg463       O465   2.304       .  S
Mg463       O492   2.278       .  S
O465        C469   1.269       .  A
O466       Mg473   2.288       .  S
O467        C486   1.267       .  A
O468        C488   1.269       .  A
O468       Mg484   2.288       .  S
O470       Mg484   2.150       .  S
O470        C481   1.233       .  S
O471       Mg490   2.150       .  S
O472       Mg484   2.312       .  S
Mg473       O489   2.264       .  S
O474       Mg490   2.253       .  S
H475        C480   1.081       .  S
O476       Mg484   2.168       .  S
O476        C479   1.235       .  S
H477        C479   1.081       .  S
H478        C481   1.081       .  S
O483       Mg490   2.303       .  S
C486       C1094   1.475       .  S
C486        O491   1.272       .  A
O487        C488   1.271       .  A
C488        C734   1.495       .  S
C493        N494   1.346   1_554  A
C493        N498   1.362       .  A
C493        C934   1.473       .  S
N494        C495   1.345       .  A
C495        N496   1.363       .  A
C495        C797   1.471       .  S
N496        C497   1.369       .  A
C497        N498   1.368   1_556  A
C497        C654   1.494       .  S
C499        N500   1.366       .  A
C499        N504   1.345       .  A
C499        C907   1.477       .  S
N500        C501   1.372       .  A
C501        N502   1.369   1_554  A
C501        C652   1.497       .  S
N502        C503   1.362       .  A
C503        N504   1.344   1_556  A
C503        C757   1.470       .  S
C505        N506   1.363       .  A
C505        N510   1.347   1_554  A
C505        C867   1.477       .  S
N506        C507   1.368   1_554  A
C507        N508   1.370       .  A
C507        C651   1.495       .  S
N508        C509   1.364       .  A
C509        N510   1.345       .  A
C509        C737   1.470       .  S
C511        N512   1.366       .  A
C511        N516   1.346       .  A
C511        C977   1.482       .  S
N512        C513   1.371       .  A
C513        N514   1.369       .  A
C513        C583   1.497   1_545  S
N514        C515   1.363       .  A
C515        N516   1.344       .  A
C515        C894   1.470       .  S
C517        N518   1.361       .  A
C517        N522   1.344       .  A
C517        C987   1.465       .  S
N518        C519   1.367       .  A
C519        N520   1.370       .  A
C519        C617   1.493       .  S
N520        C521   1.365       .  A
C521        N522   1.346       .  A
C521        C927   1.479       .  S
C523        N524   1.361       .  A
C523        N528   1.345       .  A
C523        C827   1.463       .  S
N524        C525   1.367       .  A
C525        N526   1.369       .  A
C525        C550   1.490       .  S
N526        C527   1.363       .  A
C527        N528   1.344       .  A
C527        C964   1.467       .  S
N529        C534   1.357       .  A
N529        C533   1.357       .  A
N529        H561   1.033       .  S
N530        C537   1.354       .  A
N530        C538   1.355       .  A
N531        C536   1.355   1_455  A
N531        C535   1.356   1_455  A
N531        H562   1.031       .  S
N532        C539   1.355       .  A
N532        C540   1.355       .  A
C533        C541   1.389       .  A
C533        C549   1.427       .  A
C534        C550   1.424   1_565  A
C534        C542   1.387       .  A
C535        C543   1.388       .  A
C535        C552   1.423       .  A
C536        C551   1.423   1_565  A
C536        C544   1.388       .  A
C537        C549   1.422       .  A
C537        C545   1.388       .  A
C538        C552   1.421   1_455  A
C538        C546   1.386       .  A
C539        C547   1.387       .  A
C539        C550   1.420       .  A
C540        C548   1.387       .  A
C540        C551   1.421   1_455  A
C541        H553   1.082       .  S
C541        C542   1.377       .  A
C542        H554   1.082       .  S
C543        H555   1.082       .  S
C543        C544   1.377       .  A
C544        H556   1.082       .  S
C545        H557   1.082       .  S
C545        C546   1.374       .  A
C546        H558   1.082       .  S
C547        H559   1.083       .  S
C547        C548   1.375       .  A
C548        H560   1.082       .  S
N563        C568   1.356       .  A
N563        C567   1.359       .  A
N563        H595   1.033       .  S
N564        C571   1.357   1_566  A
N564        C572   1.355   1_565  A
N565        C570   1.358       .  A
N565        C569   1.356       .  A
N565        H596   1.031       .  S
N566        C573   1.355   1_556  A
N566        C574   1.357       .  A
C567        C575   1.387       .  A
C567        C583   1.425       .  A
C568        C584   1.424       .  A
C568        C576   1.388       .  A
C569        C577   1.389       .  A
C569        C586   1.425       .  A
C570        C585   1.425       .  A
C570        C578   1.387       .  A
C571        C583   1.422   1_545  A
C571        C579   1.386       .  A
C572        C586   1.424   1_545  A
C572        C580   1.388       .  A
C573        C581   1.387       .  A
C573        C584   1.424       .  A
C574        C582   1.386       .  A
C574        C585   1.425       .  A
C575        H587   1.082       .  S
C575        C576   1.376       .  A
C576        H588   1.082       .  S
C577        H589   1.082       .  S
C577        C578   1.377       .  A
C578        H590   1.082       .  S
C579        H591   1.082       .  S
C579        C580   1.377   1_554  A
C580        H592   1.082       .  S
C581        H593   1.082       .  S
C581        C582   1.378   1_554  A
C582        H594   1.083       .  S
N597        C602   1.358       .  A
N597        C601   1.358       .  A
N597        H629   1.032       .  S
N598        C605   1.355       .  A
N598        C606   1.357   1_554  A
N599        C604   1.356       .  A
N599        C603   1.356       .  A
N599        H630   1.028       .  S
N600        C607   1.355   1_455  A
N600        C608   1.356   1_454  A
C601        C609   1.389       .  A
C601        C617   1.427       .  A
C602        C618   1.425       .  A
C602        C610   1.387       .  A
C603        C611   1.388       .  A
C603        C620   1.423       .  A
C604        C619   1.424       .  A
C604        C612   1.388       .  A
C605        C617   1.424       .  A
C605        C613   1.388       .  A
C606        C620   1.423       .  A
C606        C614   1.386       .  A
C607        C615   1.388       .  A
C607        C618   1.423   1_655  A
C608        C616   1.386       .  A
C608        C619   1.422   1_655  A
C609        H621   1.082       .  S
C609        C610   1.380       .  A
C610        H622   1.082       .  S
C611        H623   1.082       .  S
C611        C612   1.376       .  A
C612        H624   1.083       .  S
C613        H625   1.082       .  S
C613        C614   1.376   1_554  A
C614        H626   1.082       .  S
C615        H627   1.082       .  S
C615        C616   1.374   1_554  A
C616        H628   1.082       .  S
N631        C636   1.359   1_554  A
N631        C635   1.358   1_554  A
N631        H663   1.033       .  S
N632        C639   1.357   1_556  A
N632        C640   1.356   1_556  A
N633        C638   1.358   1_554  A
N633        C637   1.357   1_554  A
N633        H664   1.034       .  S
N634        C641   1.356       .  A
N634        C642   1.356       .  A
C635        C643   1.388       .  A
C635        C651   1.426       .  A
C636        C652   1.427   1_556  A
C636        C644   1.388       .  A
C637        C645   1.387       .  A
C637        C654   1.424       .  A
C638        C653   1.426   1_556  A
C638        C646   1.388       .  A
C639        C651   1.424   1_554  A
C639        C647   1.387       .  A
C640        C654   1.424   1_554  A
C640        C648   1.387       .  A
C641        C649   1.387       .  A
C641        C652   1.423       .  A
C642        C650   1.387       .  A
C642        C653   1.423       .  A
C643        H655   1.082       .  S
C643        C644   1.378       .  A
C644        H656   1.082       .  S
C645        H657   1.082       .  S
C645        C646   1.378       .  A
C646        H658   1.082       .  S
C647        H659   1.082       .  S
C647        C648   1.377       .  A
C648        H660   1.082       .  S
C649        H661   1.082       .  S
C649        C650   1.376       .  A
C650        H662   1.082       .  S
N665        C670   1.359       .  A
N665        C669   1.358       .  A
N665        H697   1.028       .  S
N666        C673   1.357       .  A
N666        C674   1.357       .  A
N667        C672   1.358       .  A
N667        C671   1.358       .  A
N667        H698   1.029       .  S
N668        C675   1.357       .  A
N668        C676   1.356       .  A
C669        C677   1.388       .  A
C669        C685   1.427       .  A
C670        C686   1.426       .  A
C670        C678   1.387       .  A
C671        C679   1.388       .  A
C671        C688   1.426       .  A
C672        C687   1.426       .  A
C672        C680   1.388       .  A
C673        C685   1.426       .  A
C673        C681   1.387       .  A
C674        C688   1.425       .  A
C674        C682   1.387       .  A
C675        C683   1.387       .  A
C675        C686   1.425       .  A
C676        C684   1.387       .  A
C676        C687   1.425       .  A
C677        H689   1.082       .  S
C677        C678   1.379       .  A
C678        H690   1.082       .  S
C679        H691   1.083       .  S
C679        C680   1.380       .  A
C680        H692   1.082       .  S
C681        H693   1.082       .  S
C681        C682   1.376       .  A
C682        H694   1.083       .  S
C683        H695   1.082       .  S
C683        C684   1.375       .  A
C684        H696   1.083       .  S
N699        C704   1.358       .  A
N699        C703   1.358       .  A
N699        H731   1.032       .  S
N700        C707   1.356       .  A
N700        C708   1.357       .  A
N701        C706   1.356       .  A
N701        C705   1.358       .  A
N701        H732   1.032       .  S
N702        C709   1.356       .  A
N702        C710   1.355       .  A
C703        C711   1.389       .  A
C703        C719   1.428       .  A
C704        C720   1.426       .  A
C704        C712   1.387       .  A
C705        C713   1.387       .  A
C705        C722   1.424       .  A
C706        C721   1.424       .  A
C706        C714   1.388       .  A
C707        C719   1.426       .  A
C707        C715   1.388       .  A
C708        C722   1.424       .  A
C708        C716   1.386       .  A
C709        C717   1.387       .  A
C709        C720   1.422       .  A
C710        C718   1.388       .  A
C710        C721   1.422       .  A
C711        H723   1.082       .  S
C711        C712   1.378       .  A
C712        H724   1.082       .  S
C713        H725   1.082       .  S
C713        C714   1.377       .  A
C714        H726   1.082       .  S
C715        H727   1.082       .  S
C715        C716   1.376       .  A
C716        H728   1.082       .  S
C717        H729   1.082       .  S
C717        C718   1.375       .  A
C718        H730   1.083       .  S
C733        H740   1.083       .  S
C733        C734   1.411       .  A
C733        C738   1.403       .  A
C734        C735   1.420       .  A
C735        C736   1.401       .  A
C735       Br742   1.922       .  S
C736        H741   1.084       .  S
C736        C737   1.400       .  A
C737        C738   1.406       .  A
C738       Br739   1.919       .  S
C743        H750   1.084       .  S
C743        C744   1.398       .  A
C743        C748   1.397       .  A
C744        C745   1.404       .  A
C745        C746   1.403       .  A
C745       Br752   1.917       .  S
C746        H751   1.083       .  S
C746        C747   1.411       .  A
C747        C748   1.419       .  A
C748       Br749   1.917       .  S
C753        H760   1.083       .  S
C753        C754   1.400       .  A
C753        C758   1.393       .  A
C754        C755   1.419       .  A
C755        C756   1.405       .  A
C755       Br762   1.922       .  S
C756        H761   1.083       .  S
C756        C757   1.401       .  A
C757        C758   1.410       .  A
C758       Br759   1.921       .  S
C763        H770   1.083       .  S
C763        C764   1.411       .  A
C763        C768   1.400       .  A
C764        C765   1.415       .  A
C765        C766   1.399       .  A
C765       Br772   1.922       .  S
C766        H771   1.084   1_545  S
C766        C767   1.403       .  A
C767        C768   1.403       .  A
C768       Br769   1.919       .  S
C773        H780   1.084       .  S
C773        C774   1.407       .  A
C773        C778   1.399   1_455  A
C774        C775   1.404   1_455  A
C775        C776   1.401       .  A
C775       Br782   1.919       .  S
C776        H781   1.083       .  S
C776        C777   1.411       .  A
C777        C778   1.411       .  A
C778       Br779   1.921       .  S
C783        H790   1.083       .  S
C783        C784   1.411       .  A
C783        C788   1.401       .  A
C784        C785   1.417       .  A
C785        C786   1.401       .  A
C785       Br792   1.922       .  S
C786        H791   1.084   1_655  S
C786        C787   1.403   1_655  A
C787        C788   1.405   1_455  A
C788       Br789   1.919   1_655  S
C793        H800   1.083       .  S
C793        C794   1.408       .  A
C793        C798   1.404       .  A
C794        C795   1.409       .  A
C795        C796   1.395       .  A
C795       Br802   1.922       .  S
C796        H801   1.084       .  S
C796        C797   1.404       .  A
C797        C798   1.406       .  A
C798       Br799   1.917       .  S
C803        H810   1.083       .  S
C803        C804   1.409       .  A
C803        C808   1.400       .  A
C804        C805   1.421       .  A
C805        C806   1.400       .  A
C805       Br812   1.923       .  S
C806        H811   1.084       .  S
C806        C807   1.398       .  A
C807        C808   1.406       .  A
C808       Br809   1.919       .  S
C813        H820   1.084       .  S
C813        C814   1.397       .  A
C813        C818   1.399       .  A
C814        C815   1.403       .  A
C815        C816   1.395       .  A
C815       Br822   1.919       .  S
C816        H821   1.082       .  S
C816        C817   1.406       .  A
C817        C818   1.419       .  A
C818       Br819   1.917       .  S
C823        H830   1.083       .  S
C823        C824   1.410       .  A
C823        C828   1.398       .  A
C824        C825   1.414       .  A
C825        C826   1.397       .  A
C825       Br832   1.922       .  S
C826        H831   1.084       .  S
C826        C827   1.403       .  A
C827        C828   1.402       .  A
C828       Br829   1.919       .  S
C833        H840   1.084       .  S
C833        C834   1.399       .  A
C833        C838   1.403       .  A
C834        C835   1.406       .  A
C835        C836   1.393       .  A
C835       Br842   1.920       .  S
C836        H841   1.083       .  S
C836        C837   1.406       .  A
C837        C838   1.422       .  A
C838       Br839   1.921       .  S
C843        H850   1.084       .  S
C843        C844   1.406       .  A
C843        C848   1.398   1_565  A
C844        C845   1.405   1_565  A
C845        C846   1.401       .  A
C845       Br852   1.919       .  S
C846        H851   1.083       .  S
C846        C847   1.410       .  A
C847        C848   1.411       .  A
C848       Br849   1.921       .  S
C853        H860   1.084       .  S
C853        C854   1.404       .  A
C853        C858   1.400       .  A
C854        C855   1.403       .  A
C855        C856   1.400       .  A
C855       Br862   1.918       .  S
C856        H861   1.082       .  S
C856        C857   1.408       .  A
C857        C858   1.416       .  A
C858       Br859   1.924       .  S
C863        H870   1.083       .  S
C863        C864   1.411       .  A
C863        C868   1.401       .  A
C864        C865   1.408       .  A
C865        C866   1.396       .  A
C865       Br872   1.921       .  S
C866        H871   1.084       .  S
C866        C867   1.407       .  A
C867        C868   1.406       .  A
C868       Br869   1.919       .  S
C873        H880   1.083       .  S
C873        C874   1.410       .  A
C873        C878   1.404       .  A
C874        C875   1.411       .  A
C875        C876   1.397       .  A
C875       Br882   1.922       .  S
C876        H881   1.084   1_655  S
C876        C877   1.405       .  A
C877        C878   1.405       .  A
C878       Br879   1.918       .  S
C883        H890   1.084       .  S
C883        C884   1.408       .  A
C883        C888   1.391       .  A
C884        C885   1.409       .  A
C885        C886   1.406       .  A
C885       Br892   1.918       .  S
C886        H891   1.083       .  S
C886        C887   1.410       .  A
C887        C888   1.404       .  A
C888       Br889   1.921       .  S
C893        H900   1.084       .  S
C893        C894   1.404       .  A
C893        C898   1.397       .  A
C894        C895   1.403       .  A
C895        C896   1.401       .  A
C895       Br902   1.918       .  S
C896        H901   1.083       .  S
C896        C897   1.412       .  A
C897        C898   1.414       .  A
C898       Br899   1.923       .  S
C903        H910   1.083       .  S
C903        C904   1.411       .  A
C903        C908   1.405       .  A
C904        C905   1.412       .  A
C905        C906   1.399       .  A
C905       Br912   1.922       .  S
C906        H911   1.084       .  S
C906        C907   1.406       .  A
C907        C908   1.405       .  A
C908       Br909   1.917       .  S
C913        H920   1.084   1_545  S
C913        C914   1.405       .  A
C913        C918   1.401       .  A
C914        C915   1.404       .  A
C915        C916   1.400       .  A
C915       Br922   1.918       .  S
C916        H921   1.083       .  S
C916        C917   1.409       .  A
C917        C918   1.415       .  A
C918       Br919   1.923       .  S
C923        H930   1.084       .  S
C923        C924   1.409       .  A
C923        C928   1.402       .  A
C924        C925   1.407       .  A
C925        C926   1.397       .  A
C925       Br932   1.921       .  S
C926        H931   1.084       .  S
C926        C927   1.410       .  A
C927        C928   1.407       .  A
C928       Br929   1.918       .  S
C933        H940   1.084       .  S
C933        C934   1.405       .  A
C933        C938   1.395       .  A
C934        C935   1.405       .  A
C935        C936   1.402       .  A
C935       Br942   1.919       .  S
C936        H941   1.083       .  S
C936        C937   1.412       .  A
C937        C938   1.409       .  A
C938       Br939   1.917       .  S
C943        H950   1.083       .  S
C943        C944   1.410       .  A
C943        C948   1.403       .  A
C944        C945   1.410       .  A
C945        C946   1.396       .  A
C945       Br952   1.922       .  S
C946        H951   1.084       .  S
C946        C947   1.406       .  A
C947        C948   1.406       .  A
C948       Br949   1.918       .  S
C953        H960   1.084       .  S
C953        C954   1.401       .  A
C953        C958   1.404       .  A
C954        C955   1.406       .  A
C955        C956   1.399       .  A
C955       Br962   1.919       .  S
C956        H961   1.083       .  S
C956        C957   1.409       .  A
C957        C958   1.422       .  A
C958       Br959   1.924       .  S
C963        H970   1.084       .  S
C963        C964   1.400       .  A
C963        C968   1.398       .  A
C964        C965   1.404       .  A
C965        C966   1.402       .  A
C965       Br972   1.919       .  S
C966        H971   1.083       .  S
C966        C967   1.414       .  A
C967        C968   1.419       .  A
C968       Br969   1.923       .  S
C973        H980   1.084       .  S
C973        C974   1.409       .  A
C973        C978   1.405       .  A
C974        C975   1.405       .  A
C975        C976   1.397       .  A
C975       Br982   1.920       .  S
C976        H981   1.084       .  S
C976        C977   1.410       .  A
C977        C978   1.408       .  A
C978       Br979   1.918       .  S
C983        H990   1.083       .  S
C983        C984   1.411       .  A
C983        C988   1.400       .  A
C984        C985   1.418       .  A
C985        C986   1.398       .  A
C985       Br992   1.920       .  S
C986        H991   1.084       .  S
C986        C987   1.400       .  A
C987        C988   1.404       .  A
C988       Br989   1.919       .  S
C993       H1000   1.082       .  S
C993        C994   1.404       .  A
C993        C998   1.393       .  A
C994        C995   1.422       .  A
C995        C996   1.406       .  A
C995      Br1002   1.920       .  S
C996       H1001   1.084       .  S
C996        C997   1.401       .  A
C997        C998   1.407       .  A
C998       Br999   1.922       .  S
C1003      H1010   1.084       .  S
C1003      C1004   1.404       .  A
C1003      C1008   1.397   1_565  A
C1004      C1005   1.405   1_565  A
C1005      C1006   1.403       .  A
C1005     Br1012   1.919       .  S
C1006      H1011   1.083       .  S
C1006      C1007   1.412       .  A
C1007      C1008   1.414       .  A
C1008     Br1009   1.922       .  S
C1013      H1020   1.084   1_655  S
C1013      C1014   1.402       .  A
C1013      C1018   1.398       .  A
C1014      C1015   1.402       .  A
C1015      C1016   1.398       .  A
C1015     Br1022   1.919       .  S
C1016      H1021   1.083       .  S
C1016      C1017   1.411       .  A
C1017      C1018   1.415       .  A
C1018     Br1019   1.921       .  S
C1023      H1030   1.084       .  S
C1023      C1024   1.410       .  A
C1023      C1028   1.399       .  A
C1024      C1025   1.407       .  A
C1025      C1026   1.402       .  A
C1025     Br1032   1.918       .  S
C1026      H1031   1.084       .  S
C1026      C1027   1.409       .  A
C1027      C1028   1.406       .  A
C1028     Br1029   1.920       .  S
C1033      H1040   1.082       .  S
C1033      C1034   1.410       .  A
C1033      C1038   1.400       .  A
C1034      C1035   1.417       .  A
C1035      C1036   1.403       .  A
C1035     Br1042   1.920       .  S
C1036      H1041   1.084       .  S
C1036      C1037   1.403       .  A
C1037      C1038   1.404       .  A
C1038     Br1039   1.918       .  S
C1043      H1050   1.083       .  S
C1043      C1044   1.403       .  A
C1043      C1048   1.396       .  A
C1044      C1045   1.420       .  A
C1045      C1046   1.405       .  A
C1045     Br1052   1.921       .  S
C1046      H1051   1.084       .  S
C1046      C1047   1.400       .  A
C1047      C1048   1.409       .  A
C1048     Br1049   1.920       .  S
C1053      H1060   1.084       .  S
C1053      C1054   1.406       .  A
C1053      C1058   1.400       .  A
C1054      C1055   1.404       .  A
C1055      C1056   1.400       .  A
C1055     Br1062   1.918       .  S
C1056      H1061   1.083       .  S
C1056      C1057   1.409       .  A
C1057      C1058   1.410       .  A
C1058     Br1059   1.921       .  S
C1063      H1070   1.084       .  S
C1063      C1064   1.408       .  A
C1063      C1068   1.398       .  A
C1064      C1065   1.407       .  A
C1065      C1066   1.398       .  A
C1065     Br1072   1.920       .  S
C1066      H1071   1.084       .  S
C1066      C1067   1.407       .  A
C1067      C1068   1.404       .  A
C1068     Br1069   1.919       .  S
C1073      H1080   1.084       .  S
C1073      C1074   1.404       .  A
C1073      C1078   1.396       .  A
C1074      C1075   1.406       .  A
C1075      C1076   1.403       .  A
C1075     Br1082   1.920       .  S
C1076      H1081   1.083       .  S
C1076      C1077   1.412       .  A
C1077      C1078   1.412       .  A
C1078     Br1079   1.921       .  S
C1083      H1090   1.084       .  S
C1083      C1084   1.399       .  A
C1083      C1088   1.398       .  A
C1084      C1085   1.402       .  A
C1085      C1086   1.398       .  A
C1085     Br1092   1.919       .  S
C1086      H1091   1.083       .  S
C1086      C1087   1.411       .  A
C1087      C1088   1.417       .  A
C1088     Br1089   1.921       .  S
C1093      H1100   1.084       .  S
C1093      C1094   1.409       .  A
C1093      C1098   1.400       .  A
C1094      C1095   1.407       .  A
C1095      C1096   1.395       .  A
C1095     Br1102   1.920       .  S
C1096      H1101   1.084       .  S
C1096      C1097   1.406       .  A
C1097      C1098   1.406       .  A
C1098     Br1099   1.920       .  S
C1103      H1110   1.084       .  S
C1103      C1104   1.399       .  A
C1103      C1108   1.404       .  A
C1104      C1105   1.406       .  A
C1105      C1106   1.397       .  A
C1105     Br1112   1.921       .  S
C1106      H1111   1.083       .  S
C1106      C1107   1.409       .  A
C1107      C1108   1.421       .  A
C1108     Br1109   1.919       .  S
C1113      H1120   1.083       .  S
C1113      C1114   1.410       .  A
C1113      C1118   1.399       .  A
C1114      C1115   1.411       .  A
C1115      C1116   1.395       .  A
C1115     Br1122   1.922       .  S
C1116      H1121   1.084       .  S
C1116      C1117   1.403       .  A
C1117      C1118   1.403       .  A
C1118     Br1119   1.919       .  S
C1123      H1130   1.084       .  S
C1123      C1124   1.405       .  A
C1123      C1128   1.399       .  A
C1124      C1125   1.404       .  A
C1125      C1126   1.403       .  A
C1125     Br1132   1.917       .  S
C1126      H1131   1.082       .  S
C1126      C1127   1.411       .  A
C1127      C1128   1.416       .  A
C1128     Br1129   1.924       .  S
C1133      H1140   1.083       .  S
C1133      C1134   1.410       .  A
C1133      C1138   1.398       .  A
C1134      C1135   1.420       .  A
C1135      C1136   1.398       .  A
C1135     Br1142   1.924       .  S
C1136      H1141   1.084       .  S
C1136      C1137   1.398       .  A
C1137      C1138   1.403       .  A
C1138     Br1139   1.920       .  S
C1143      H1150   1.084       .  S
C1143      C1144   1.398       .  A
C1143      C1148   1.400       .  A
C1144      C1145   1.415       .  A
C1145      C1146   1.399       .  A
C1145     Br1152   1.922       .  S
C1146      H1151   1.084       .  S
C1146      C1147   1.400       .  A
C1147      C1148   1.416       .  A
C1148     Br1149   1.918       .  S
C1153      H1160   1.084       .  S
C1153      C1154   1.401       .  A
C1153      C1158   1.400       .  A
C1154      C1155   1.403       .  A
C1155      C1156   1.398       .  A
C1155     Br1162   1.918       .  S
C1156      H1161   1.083       .  S
C1156      C1157   1.410       .  A
C1157      C1158   1.421       .  A
C1158     Br1159   1.925       .  S
C1163      H1170   1.084       .  S
C1163      C1164   1.404       .  A
C1163      C1168   1.398       .  A
C1164      C1165   1.403       .  A
C1165      C1166   1.397       .  A
C1165     Br1172   1.918       .  S
C1166      H1171   1.080       .  S
C1166      C1167   1.407       .  A
C1167      C1168   1.409       .  A
C1168     Br1169   1.919       .  S
C1173      H1180   1.083       .  S
C1173      C1174   1.406       .  A
C1173      C1178   1.396       .  A
C1174      C1175   1.421       .  A
C1175      C1176   1.403       .  A
C1175     Br1182   1.923       .  S
C1176      H1181   1.084       .  S
C1176      C1177   1.399       .  A
C1177      C1178   1.407       .  A
C1178     Br1179   1.920       .  S
C1183      H1190   1.084       .  S
C1183      C1184   1.401       .  A
C1183      C1188   1.396       .  A
C1184      C1185   1.404       .  A
C1185      C1186   1.399       .  A
C1185     Br1192   1.920       .  S
C1186      H1191   1.083       .  S
C1186      C1187   1.410       .  A
C1187      C1188   1.413       .  A
C1188     Br1189   1.922       .  S
C1193      H1200   1.084       .  S
C1193      C1194   1.399       .  A
C1193      C1198   1.400       .  A
C1194      C1195   1.412       .  A
C1195      C1196   1.394       .  A
C1195     Br1202   1.923       .  S
C1196      H1201   1.083       .  S
C1196      C1197   1.399       .  A
C1197      C1198   1.417       .  A
C1198     Br1199   1.921       .  S
C1203      H1210   1.084       .  S
C1203      C1204   1.398       .  A
C1203      C1208   1.395       .  A
C1204      C1205   1.414       .  A
C1205      C1206   1.400       .  A
C1205     Br1212   1.921       .  S
C1206      H1211   1.083       .  S
C1206      C1207   1.400       .  A
C1207      C1208   1.416       .  A
C1208     Br1209   1.923       .  S
