geometry optimzed in LAMMPS
_audit_creation_date              2020-12-01 
_audit_creation_method            'lammps2cif' 
_symmetry_space_group_name_H-M    'P1' 
_symmetry_Int_Tables_number       1 
_symmetry_cell_setting            triclinic 
loop_ 
_symmetry_equiv_pos_as_xyz 
  x,y,z 
_cell_length_a                    33.17591614 
_cell_length_b                    41.705298956932005 
_cell_length_c                    36.04709430847542 
_cell_angle_alpha                 90.01947152831669 
_cell_angle_beta                  89.97222192626347 
_cell_angle_gamma                 89.99552979347798 
loop_ 
_atom_site_label 
_atom_site_type_symbol 
_atom_site_fract_x 
_atom_site_fract_y 
_atom_site_fract_z 
_atom_site_charge 
O1          O  0.28087192  0.95199051  0.00411357    -0.70000
O2          O  0.28096138  0.04809409  0.00414256    -0.71000
O3          O  0.27230292  0.00005213  0.05904783    -0.59600
O4          O  0.27081806  0.99999109  0.44336433    -0.68100
O5          O  0.20391865  0.00001171  0.44521928    -0.67600
O6          O  0.20592949  0.00009628  0.05146350    -0.58900
O7          O  0.20645496  0.04853657  0.50032785    -0.71400
O8          O  0.20641853  0.95145186  0.50025357    -0.70100
Cu9        Cu  0.28312276  0.00004011  0.00442073     1.04600
Cu10       Cu  0.20344679  0.99999602  0.50031620     1.04300
C11         C  0.24770467  0.93692383  0.00006589     0.96200
C12         C  0.24034979  0.06317971  0.50002193     0.95300
C13         C  0.23671489  0.00007640  0.07271118     0.87400
C14         C  0.23662526  0.00000556  0.42676596     0.93700
O15         O  0.29372301  0.00002045  0.19473173    -0.70000
O16         O  0.29610463  0.99999141  0.30478581    -0.71000
O17         O  0.29357496  0.95146527  0.24967834    -0.59600
O18         O  0.29359712  0.04855004  0.24975041    -0.68100
O19         O  0.22661559  0.04777735  0.25045957    -0.67600
O20         O  0.22659353  0.95226640  0.25038591    -0.58900
O21         O  0.22920523  0.00000628  0.30664103    -0.71400
O22         O  0.22678402  0.00003860  0.19410255    -0.70100
Cu23       Cu  0.29657609  0.00000614  0.24968884     1.04600
Cu24       Cu  0.22491074  0.00002229  0.25046073     1.04300
C25         C  0.26059937  0.00003538  0.17690545     0.96200
C26         C  0.26339812  0.99999502  0.32323926     0.95300
C27         C  0.25968215  0.93681917  0.24998457     0.87400
C28         C  0.25971131  0.06321106  0.25008391     0.93700
C29         C  0.21346312  0.21214587  0.50123984     0.06000
C30         C  0.25069507  0.22801273  0.50130527    -0.10100
C31         C  0.28664299  0.21029267  0.50108787     0.03500
C32         C  0.28509638  0.17660657  0.50079102    -0.08600
C33         C  0.24766803  0.16083633  0.50071420     0.06000
C34         C  0.21203686  0.17867146  0.50094259    -0.08100
H35         H  0.25168550  0.25400395  0.50152323     0.11600
H36         H  0.31277535  0.16278409  0.50061841     0.09100
H37         H  0.18314093  0.16648166  0.50088328     0.09000
C38         C  0.28662556  0.21217991  0.24929523     0.06000
C39         C  0.28805097  0.17870457  0.24947992    -0.10100
C40         C  0.25241947  0.16087378  0.24968670     0.03500
C41         C  0.21499154  0.17665064  0.24970312    -0.08600
C42         C  0.21344595  0.21033787  0.24951749     0.06000
C43         C  0.24939441  0.22805253  0.24932317    -0.08100
H44         H  0.31694663  0.16651058  0.24946078     0.11600
H45         H  0.18731193  0.16283226  0.24985120     0.09100
H46         H  0.24840503  0.25404427  0.24918120     0.09000
C47         C  0.21269752  0.78861256  0.99902147     0.06000
C48         C  0.21245061  0.82218522  0.99934864    -0.10100
C49         C  0.24882633  0.83918693  0.99936228     0.03500
C50         C  0.28554361  0.82260448  0.99905562    -0.08600
C51         C  0.28589703  0.78900802  0.99873411     0.06000
C52         C  0.24943747  0.77199939  0.99870513    -0.08100
H53         H  0.18403006  0.83504464  0.99959649     0.11600
H54         H  0.31372251  0.83578955  0.99908205     0.09100
H55         H  0.24965429  0.74599721  0.99846587     0.09000
C56         C  0.28656335  0.78785024  0.24877348     0.06000
C57         C  0.24932934  0.77198643  0.24870822    -0.10100
C58         C  0.21338373  0.78970948  0.24892358     0.03500
C59         C  0.21493475  0.82339541  0.24921805    -0.08600
C60         C  0.25236510  0.83916261  0.24929479     0.06000
C61         C  0.28799399  0.82132458  0.24906840    -0.08100
H62         H  0.24833553  0.74599526  0.24849209     0.11600
H63         H  0.18725755  0.83722015  0.24938920     0.09100
H64         H  0.31689153  0.83351203  0.24912764     0.09000
C65         C  0.03593776  0.71213241  0.50073593     0.06000
C66         C  0.49862924  0.72787464  0.50089353    -0.10100
C67         C  0.46279670  0.71000394  0.50065455     0.03500
C68         C  0.46457413  0.67632163  0.50049031    -0.08600
C69         C  0.50211865  0.66071963  0.50057414     0.06000
C70         C  0.03736483  0.67865883  0.50052673    -0.08100
H71         H  0.49747033  0.75386153  0.50101241     0.11600
H72         H  0.43699460  0.66237769  0.50030261     0.09100
H73         H  0.06626202  0.66646684  0.50052394     0.09000
C74         C  0.46403700  0.71217359  0.24907147     0.06000
C75         C  0.00133695  0.72791965  0.24863856    -0.10100
C76         C  0.03717515  0.71005176  0.24888984     0.03500
C77         C  0.03540774  0.67637009  0.24918630    -0.08600
C78         C  0.99786720  0.66076635  0.24922430     0.06000
C79         C  0.46261994  0.67870127  0.24942743    -0.08100
H80         H  0.00248827  0.75390599  0.24842102     0.11600
H81         H  0.06299152  0.66242816  0.24938386     0.09100
H82         H  0.43372657  0.66650727  0.24945939     0.09000
C83         C  0.03557844  0.28844323  0.99903451     0.06000
C84         C  0.49935432  0.27232694  0.99824814    -0.10100
C85         C  0.46270775  0.28908951  0.99861315     0.03500
C86         C  0.46271318  0.32269424  0.99905341    -0.08600
C87         C  0.49928245  0.33947669  0.99914373     0.06000
C88         C  0.03547314  0.32200799  0.99917020    -0.08100
H89         H  0.49945095  0.24632570  0.99793794     0.11600
H90         H  0.43441451  0.33571507  0.99934794     0.09100
H91         H  0.06377714  0.33503050  0.99919383     0.09000
C92         C  0.46408548  0.28785772  0.24926266     0.06000
C93         C  0.00139897  0.27214063  0.24910844    -0.10100
C94         C  0.03723143  0.29001147  0.24934444     0.03500
C95         C  0.03545371  0.32369382  0.24950569    -0.08600
C96         C  0.99790894  0.33929556  0.24942186     0.06000
C97         C  0.46265584  0.32133125  0.24947554    -0.08100
H98         H  0.00255804  0.24615375  0.24899210     0.11600
H99         H  0.06303317  0.33763801  0.24969155     0.09100
H100        H  0.43375777  0.33352185  0.24948006     0.09000
O101        O  0.03436340  0.54836439  0.99602318    -0.70000
O102        O  0.03436728  0.45166364  0.99593864    -0.71000
O103        O  0.04539947  0.49999725  0.44483994    -0.59600
O104        O  0.04291804  0.49999334  0.05125290    -0.68100
O105        O  0.47687939  0.50007331  0.05925557    -0.67600
O106        O  0.47991809  0.49996879  0.44359391    -0.58900
O107        O  0.46808065  0.45216553  0.00425646    -0.71400
O108        O  0.46801703  0.54794365  0.00425228    -0.70100
Cu109      Cu  0.03692910  0.50001341  0.99570606     1.04600
Cu110      Cu  0.46598070  0.50005379  0.00455116     1.04300
C111        C  0.50108419  0.56308994  0.00017065     0.96200
C112        C  0.50116656  0.43703676  0.00018363     0.95300
C113        C  0.51412365  0.49996376  0.42697069     0.87400
C114        C  0.51251862  0.50008478  0.07282087     0.93700
O115        O  0.02010378  0.50004365  0.30640982    -0.70000
O116        O  0.02239977  0.50002067  0.19381922    -0.71000
O117        O  0.02278796  0.54772025  0.25017816    -0.59600
O118        O  0.02280457  0.45234531  0.25016691    -0.68100
O119        O  0.45693702  0.45146601  0.25009647    -0.67600
O120        O  0.45692926  0.54857795  0.25019787    -0.58900
O121        O  0.45639422  0.50005270  0.19520611    -0.71400
O122        O  0.45462290  0.49999753  0.30516467    -0.70100
Cu123      Cu  0.02441312  0.50003285  0.25020257     1.04600
Cu124      Cu  0.45390544  0.50002305  0.25013143     1.04300
C125        C  0.98589852  0.50004589  0.32303360     0.96200
C126        C  0.98853041  0.50001708  0.17672364     0.95300
C127        C  0.98973700  0.56319515  0.24985222     0.87400
C128        C  0.98975769  0.43686876  0.24984149     0.93700
C129        C  0.01548399  0.50001826  0.38572053    -0.13500
C130        C  0.98296669  0.50004830  0.36382602    -0.28700
H131        H  0.04539504  0.49999903  0.37340624     0.15500
H132        H  0.45462776  0.49999885  0.37659793     0.16100
C133        C  0.01775776  0.49998449  0.11314309    -0.13500
C134        C  0.98584701  0.50001042  0.13598767    -0.28700
H135        H  0.04815565  0.49996655  0.12433243     0.15500
H136        H  0.45626018  0.50010123  0.12490491     0.16100
C137        C  0.99145604  0.40250377  0.24972688    -0.10400
C138        C  0.99512113  0.37373989  0.24959526    -0.11900
C139        C  0.49962571  0.37389697  0.99960495    -0.10400
C140        C  0.50062435  0.40273781  0.99992313    -0.11100
C141        C  0.99508838  0.62632290  0.24951756    -0.10400
C142        C  0.99142743  0.59755969  0.24971424    -0.11900
C143        C  0.50490556  0.62627521  0.50039988    -0.10400
C144        C  0.50856888  0.59751115  0.50026936    -0.11900
C145        C  0.17511631  0.77315725  0.24885412    -0.15600
C146        C  0.14366991  0.75851175  0.24881621     0.08500
C147        C  0.10703809  0.74103804  0.24881334     0.10300
C148        C  0.07554389  0.72645698  0.24884260    -0.16500
C149        C  0.32368724  0.77014717  0.24858170    -0.15600
C150        C  0.35607900  0.75716356  0.24851947     0.08500
C151        C  0.39450397  0.74283140  0.24858874     0.10300
C152        C  0.42690360  0.72986150  0.24876363    -0.16500
C153        C  0.17511494  0.77138037  0.99904827    -0.15600
C154        C  0.14388150  0.75713325  0.50101604     0.08500
C155        C  0.10534973  0.74213259  0.99914860     0.10300
C156        C  0.07306571  0.72982445  0.50093299    -0.16500
C157        C  0.42442288  0.72640646  0.50060210    -0.15600
C158        C  0.39309016  0.74216493  0.99830555     0.08500
C159        C  0.35564470  0.75825029  0.99838598     0.10300
C160        C  0.32372689  0.77207833  0.99850820    -0.16500
C161        C  0.32375144  0.22987559  0.24908857    -0.15600
C162        C  0.35614194  0.24285696  0.24898241     0.08500
C163        C  0.39456349  0.25719044  0.24897287     0.10300
C164        C  0.42695874  0.27016406  0.24906485    -0.16500
C165        C  0.07560513  0.27360866  0.24939749    -0.15600
C166        C  0.10710300  0.25902849  0.24942573     0.08500
C167        C  0.14373665  0.24155216  0.24946229     0.10300
C168        C  0.17518146  0.22690017  0.24949629    -0.16500
C169        C  0.42505898  0.27191764  0.99863740    -0.15600
C170        C  0.39322384  0.25797539  0.99870996     0.08500
C171        C  0.35578294  0.24188868  0.99880840     0.10300
C172        C  0.32387022  0.22805744  0.99889323    -0.16500
C173        C  0.17525696  0.22873200  0.99903504    -0.15600
C174        C  0.14394367  0.24282714  0.50149728     0.08500
C175        C  0.10545965  0.25793798  0.99898828     0.10300
C176        C  0.07334928  0.27146005  0.99898621    -0.16500
C177        C  0.25819124  0.09759866  0.24998942    -0.10400
C178        C  0.25489289  0.12639943  0.24986471    -0.11900
C179        C  0.25814725  0.90243354  0.24981396    -0.10400
C180        C  0.25484323  0.87363465  0.24959798    -0.11900
C181        C  0.23374381  0.00001410  0.38596683    -0.13500
C182        C  0.26627972  0.99998689  0.36403840    -0.28700
H183        H  0.20383038  0.00004051  0.37368575     0.15500
H184        H  0.29619318  0.99996080  0.37631945     0.16100
C185        C  0.23112909  0.00007707  0.11340410    -0.13500
C186        C  0.26312397  0.00004744  0.13615548    -0.28700
H187        H  0.20075836  0.00009639  0.12467934     0.15500
H188        H  0.29331196  0.00002976  0.12441696     0.16100
C189        C  0.24188910  0.09756524  0.50019289    -0.10400
C190        C  0.24519370  0.12636409  0.50040957    -0.11900
C191        C  0.24791138  0.90255738  0.99990226    -0.10400
C192        C  0.24839780  0.87367002  0.99968454    -0.11900
O193        O  0.27340018  0.95221866  0.49954447    -0.70000
O194        O  0.27343628  0.04772959  0.49962061    -0.71000
O195        O  0.27323847  0.99995603  0.55590281    -0.59600
O196        O  0.28919013  0.00002709  0.94911188    -0.68100
O197        O  0.22286435  0.00006605  0.94090116    -0.67600
O198        O  0.20629949  0.99998025  0.55527322    -0.58900
O199        O  0.21453086  0.04824420  0.99612816    -0.71400
O200        O  0.21444039  0.95192109  0.99610399    -0.70100
Cu201      Cu  0.27511215  0.99997351  0.49954463     1.04600
Cu202      Cu  0.21207720  0.00008426  0.99583764     1.04300
C203        C  0.24030230  0.93678788  0.49991990     0.96200
C204        C  0.24781991  0.06320125  0.00010747     0.95300
C205        C  0.23942298  0.99996147  0.57309969     0.87400
C206        C  0.25862958  0.00003550  0.92762396     0.93700
O207        O  0.29409131  0.99989485  0.69854222    -0.70000
O208        O  0.27715515  0.99992680  0.80910420    -0.71000
O209        O  0.28549634  0.95174761  0.75387954    -0.59600
O210        O  0.28557221  0.04807088  0.75389927    -0.68100
O211        O  0.21914083  0.04799484  0.74588875    -0.67600
O212        O  0.21906582  0.95189154  0.74586496    -0.58900
O213        O  0.21082945  0.99995974  0.80089300    -0.71400
O214        O  0.22771799  0.99993233  0.69095716    -0.70100
Cu215      Cu  0.28794286  0.99990788  0.75416793     1.04600
Cu216      Cu  0.21689739  0.99994513  0.74558418     1.04300
C217        C  0.26330620  0.99991181  0.67729420     0.96200
C218        C  0.24138982  0.99995467  0.82238114     0.95300
C219        C  0.25220935  0.93678749  0.74990092     0.87400
C220        C  0.25230575  0.06306484  0.74993587     0.93700
C221        C  0.21284782  0.21150767  0.99909807     0.06000
C222        C  0.24958110  0.22812635  0.99889573    -0.10100
C223        C  0.28604734  0.21112270  0.99902254     0.03500
C224        C  0.28570739  0.17752606  0.99932334    -0.08600
C225        C  0.24899646  0.16093849  0.99951183     0.06000
C226        C  0.21261423  0.17793526  0.99940334    -0.08100
H227        H  0.24978756  0.25412859  0.99866849     0.11600
H228        H  0.31389146  0.16434498  0.99941972     0.09100
H229        H  0.18419825  0.16507189  0.99956065     0.09000
C230        C  0.28730387  0.21137635  0.75097227     0.06000
C231        C  0.28755097  0.17780372  0.75064552    -0.10100
C232        C  0.25117542  0.16080182  0.75063256     0.03500
C233        C  0.21445796  0.17738412  0.75093904    -0.08600
C234        C  0.21410442  0.21098066  0.75125999     0.06000
C235        C  0.25056388  0.22798940  0.75128846    -0.08100
H236        H  0.31597161  0.16494447  0.75039805     0.11600
H237        H  0.18627921  0.16419897  0.75091345     0.09100
H238        H  0.25034694  0.25399160  0.75152775     0.09000
C239        C  0.21339389  0.78781604  0.50070520     0.06000
C240        C  0.21196370  0.82129133  0.50052158    -0.10100
C241        C  0.24759280  0.83912524  0.50031615     0.03500
C242        C  0.28502286  0.82335173  0.50030002    -0.08600
C243        C  0.28657325  0.78966473  0.50048453     0.06000
C244        C  0.25062734  0.77194680  0.50067751    -0.08100
H245        H  0.18306642  0.83348274  0.50054045     0.11600
H246        H  0.31270052  0.83717257  0.50015285     0.09100
H247        H  0.25162050  0.74595512  0.50081859     0.09000
C248        C  0.28718422  0.78848049  0.75091059     0.06000
C249        C  0.25045041  0.77186244  0.75110895    -0.10100
C250        C  0.21398463  0.78886676  0.75098066     0.03500
C251        C  0.21432578  0.82246340  0.75068238    -0.08600
C252        C  0.25103720  0.83905030  0.75049771     0.06000
C253        C  0.28741893  0.82205291  0.75060771    -0.08100
H254        H  0.25024321  0.74586020  0.75133397     0.11600
H255        H  0.18614205  0.83564511  0.75058454     0.09100
H256        H  0.31583523  0.83491570  0.75045296     0.09000
C257        C  0.03549461  0.71159613  0.99926674     0.06000
C258        C  0.49922308  0.72779791  0.99804356    -0.10100
C259        C  0.46257456  0.71104222  0.99837160     0.03500
C260        C  0.46257660  0.67743809  0.99887006    -0.08600
C261        C  0.49914444  0.66064953  0.99905127     0.06000
C262        C  0.03541317  0.67803152  0.99943296    -0.08100
H263        H  0.49932233  0.75379846  0.99768492     0.11600
H264        H  0.43427646  0.66442257  0.99913352     0.09100
H265        H  0.06372636  0.66501830  0.99949113     0.09000
C266        C  0.46445145  0.71154197  0.75097387     0.06000
C267        C  0.00067510  0.72766781  0.75173957    -0.10100
C268        C  0.03732086  0.71090407  0.75137528     0.03500
C269        C  0.03731372  0.67729928  0.75093657    -0.08600
C270        C  0.00074361  0.66051793  0.75084737     0.06000
C271        C  0.46455568  0.67797723  0.75083784    -0.08100
H272        H  0.00057980  0.75366906  0.75204912     0.11600
H273        H  0.06561177  0.66427755  0.75064307     0.09100
H274        H  0.43625134  0.66495529  0.75081355     0.09000
C275        C  0.03598586  0.28781698  0.50094419     0.06000
C276        C  0.49868128  0.27209522  0.50137582    -0.10100
C277        C  0.46284281  0.28996277  0.50112628     0.03500
C278        C  0.46460972  0.32364449  0.50083109    -0.08600
C279        C  0.50215009  0.33924858  0.50079285     0.06000
C280        C  0.03740509  0.32128923  0.50058349    -0.08100
H281        H  0.49753037  0.24610885  0.50159189     0.11600
H282        H  0.43702573  0.33758620  0.50063420     0.09100
H283        H  0.06629922  0.33348213  0.50054989     0.09000
C284        C  0.46450931  0.28838900  0.75073340     0.06000
C285        C  0.00078076  0.27219675  0.75196807    -0.10100
C286        C  0.03743022  0.28895106  0.75163682     0.03500
C287        C  0.03743015  0.32255519  0.75113816    -0.08600
C288        C  0.00086323  0.33934503  0.75095997     0.06000
C289        C  0.46459159  0.32195363  0.75056663    -0.08100
H290        H  0.00067998  0.24619619  0.75232643     0.11600
H291        H  0.06573095  0.33556965  0.75087182     0.09100
H292        H  0.43627877  0.33496721  0.75050721     0.09000
O293        O  0.04308185  0.54852658  0.49991055    -0.70000
O294        O  0.04309514  0.45141489  0.49980477    -0.71000
O295        O  0.02657044  0.50003056  0.94081038    -0.59600
O296        O  0.04362627  0.49993797  0.55479867    -0.68100
O297        O  0.47761946  0.49999590  0.55618438    -0.67600
O298        O  0.46011117  0.50003327  0.94914302    -0.58900
O299        O  0.47723102  0.45229520  0.49982851    -0.71400
O300        O  0.47721811  0.54767024  0.49983392    -0.70100
Cu301      Cu  0.04611605  0.49996972  0.49987335     1.04600
Cu302      Cu  0.47560762  0.49998245  0.49980104     1.04300
C303        C  0.51026562  0.56314606  0.50015762     0.96200
C304        C  0.51028151  0.43681973  0.50015763     0.95300
C305        C  0.49079373  0.50002825  0.92774574     0.87400
C306        C  0.51148839  0.49999923  0.57328066     0.93700
O307        O  0.03990402  0.49996032  0.80086145    -0.70000
O308        O  0.02313816  0.49991807  0.69074881    -0.71000
O309        O  0.03193876  0.54782726  0.74574590    -0.59600
O310        O  0.03199634  0.45204929  0.74575397    -0.68100
O311        O  0.46564744  0.45162231  0.75397833    -0.67600
O312        O  0.46565269  0.54832332  0.75406687    -0.58900
O313        O  0.45709821  0.49999662  0.69875051    -0.71400
O314        O  0.47344394  0.49995468  0.80919337    -0.70100
Cu315      Cu  0.03403562  0.49993885  0.74545331     1.04600
Cu316      Cu  0.46308617  0.49997370  0.75429745     1.04300
C317        C  0.00922109  0.49996576  0.82225828     0.96200
C318        C  0.98749923  0.49990780  0.67718285     0.95300
C319        C  0.99885376  0.56295755  0.74981754     0.87400
C320        C  0.99892822  0.43690436  0.74983533     0.93700
C321        C  0.98467275  0.50002863  0.88686927    -0.13500
C322        C  0.01554734  0.49998982  0.86272731    -0.28700
H323        H  0.95382838  0.50004498  0.87674305     0.15500
H324        H  0.54618581  0.49993683  0.87326089     0.16100
C325        C  0.01349019  0.49990167  0.61356498    -0.13500
C326        C  0.98168163  0.49990847  0.63652947    -0.28700
H327        H  0.04375889  0.49988536  0.62509990     0.15500
H328        H  0.45186182  0.50002722  0.62567084     0.16100
C329        C  0.99950853  0.40260547  0.75011435    -0.10400
C330        C  0.00052275  0.37376501  0.75045777    -0.11900
C331        C  0.50492866  0.37369206  0.50049867    -0.10400
C332        C  0.50859010  0.40245524  0.50029960    -0.11100
C333        C  0.00039848  0.62609752  0.75038984    -0.10400
C334        C  0.99939801  0.59725662  0.75007494    -0.11900
C335        C  0.49948675  0.62622943  0.99955185    -0.10400
C336        C  0.50050218  0.59738891  0.99989353    -0.11900
C337        C  0.17616107  0.77193278  0.75110519    -0.15600
C338        C  0.14424774  0.75810229  0.75118608     0.08500
C339        C  0.10680616  0.74201642  0.75128100     0.10300
C340        C  0.07497051  0.72807483  0.75135172    -0.16500
C341        C  0.32477458  0.77125552  0.75097393    -0.15600
C342        C  0.35680572  0.75761769  0.75100006     0.08500
C343        C  0.39457109  0.74204841  0.75102006     0.10300
C344        C  0.42668112  0.72852585  0.75102189    -0.16500
C345        C  0.17627053  0.77011697  0.50091067    -0.15600
C346        C  0.14309694  0.75772627  0.99909236     0.08500
C347        C  0.10546094  0.74279809  0.50102502     0.10300
C348        C  0.07325337  0.72859275  0.99919660    -0.16500
C349        C  0.42492680  0.72822044  0.99829358    -0.15600
C350        C  0.39292365  0.74098469  0.50057462     0.08500
C351        C  0.35628749  0.75845757  0.50053894     0.10300
C352        C  0.32484022  0.77310617  0.50050548    -0.16500
C353        C  0.32488648  0.22860848  0.75094632    -0.15600
C354        C  0.35690493  0.24226188  0.75090338     0.08500
C355        C  0.39465292  0.25785436  0.75084878     0.10300
C356        C  0.42675000  0.27139313  0.75080217    -0.16500
C357        C  0.07507692  0.27177144  0.75171109    -0.15600
C358        C  0.10691270  0.25782576  0.75169594     0.08500
C359        C  0.14435731  0.24173917  0.75161202     0.10300
C360        C  0.17627463  0.22791043  0.75148749    -0.16500
C361        C  0.42447448  0.27355688  0.50117306    -0.15600
C362        C  0.39298162  0.25897395  0.50120145     0.08500
C363        C  0.35635225  0.24149693  0.50119722     0.10300
C364        C  0.32490814  0.22684827  0.50115821    -0.16500
C365        C  0.17633689  0.22984584  0.50143371    -0.15600
C366        C  0.14322547  0.24236934  0.99900858     0.08500
C367        C  0.10551781  0.25715781  0.50142884     0.10300
C368        C  0.07311820  0.27012772  0.50125370    -0.16500
C369        C  0.25209397  0.09743131  0.75009684    -0.10400
C370        C  0.25160473  0.12631868  0.75031231    -0.11900
C371        C  0.25195445  0.90242092  0.75002536    -0.10400
C372        C  0.25145585  0.87353356  0.75020859    -0.11900
C373        C  0.26530810  0.00000419  0.88719157    -0.13500
C374        C  0.23471108  0.99998651  0.86281353    -0.28700
H375        H  0.29625192  0.99998960  0.87729515     0.15500
H376        H  0.20376733  0.00000074  0.87270990     0.16100
C377        C  0.23689800  0.99994704  0.61384962    -0.13500
C378        C  0.26889259  0.99991288  0.63660133    -0.28700
H379        H  0.20670986  0.99996672  0.62558786     0.15500
H380        H  0.29926341  0.99989237  0.62532642     0.16100
C381        C  0.24807913  0.09756784  0.99998456    -0.10400
C382        C  0.24857871  0.12645520  0.99980181    -0.11900
C383        C  0.24181786  0.90240020  0.50001422    -0.10400
C384        C  0.24511546  0.87359939  0.50013875    -0.11900
O385        O  0.76973067  0.95228939  0.00006265    -0.70000
O386        O  0.76975153  0.04773704  0.00009127    -0.71000
O387        O  0.76802767  0.00001879  0.05625134    -0.59600
O388        O  0.77008296  0.99998151  0.44365687    -0.68100
O389        O  0.70318493  0.99999083  0.44502065    -0.67600
O390        O  0.70112783  0.00003211  0.05510016    -0.58900
O391        O  0.70500479  0.04855604  0.50032812    -0.71400
O392        O  0.70497944  0.95142169  0.50029575    -0.70100
Cu393      Cu  0.77143508  0.00001216  0.00008936     1.04600
Cu394      Cu  0.70193201  0.99999036  0.50031986     1.04300
C395        C  0.73663191  0.93686346  0.99987574     0.96200
C396        C  0.73894429  0.06314823  0.50015707     0.95300
C397        C  0.73407470  0.00002946  0.07324990     0.87400
C398        C  0.73606852  0.99999067  0.42677074     0.93700
O399        O  0.79603229  0.00001281  0.19441207    -0.70000
O400        O  0.79684166  0.00001423  0.30498234    -0.71000
O401        O  0.79501396  0.95144900  0.24967453    -0.59600
O402        O  0.79505266  0.04858353  0.24970739    -0.68100
O403        O  0.72807001  0.04772418  0.25012036    -0.67600
O404        O  0.72803164  0.95234870  0.25007609    -0.58900
O405        O  0.72994366  0.00002972  0.30634693    -0.71400
O406        O  0.72912044  0.00003930  0.19383896    -0.70100
Cu407      Cu  0.79809349  0.00001448  0.24968302     1.04600
Cu408      Cu  0.72643991  0.00003662  0.25011683     1.04300
C409        C  0.76291214  0.00002555  0.17655368     0.96200
C410        C  0.76395833  0.00001765  0.32323267     0.95300
C411        C  0.76107255  0.93685958  0.24984648     0.87400
C412        C  0.76112230  0.06319383  0.24989499     0.93700
C413        C  0.71344414  0.21219199  0.50120978     0.06000
C414        C  0.75080304  0.22787009  0.50118154    -0.10100
C415        C  0.78660946  0.20996168  0.50090575     0.03500
C416        C  0.78477960  0.17628024  0.50064237    -0.08600
C417        C  0.74720873  0.16071869  0.50066110     0.06000
C418        C  0.71174257  0.17873699  0.50094635    -0.08100
H419        H  0.75200097  0.25385538  0.50137956     0.11600
H420        H  0.81233779  0.16230633  0.50043095     0.09100
H421        H  0.68274443  0.16669865  0.50096592     0.09000
C422        C  0.78664722  0.21223867  0.24908880     0.06000
C423        C  0.78834895  0.17878318  0.24928085    -0.10100
C424        C  0.75288291  0.16076886  0.24951965     0.03500
C425        C  0.71531216  0.17633586  0.24956285    -0.08600
C426        C  0.71348274  0.21001801  0.24937400     0.06000
C427        C  0.74928900  0.22792191  0.24914685    -0.08100
H428        H  0.81734713  0.16674136  0.24923940     0.11600
H429        H  0.68775366  0.16236562  0.24973461     0.09100
H430        H  0.74809152  0.25390756  0.24900157     0.09000
C431        C  0.71271512  0.78735087  0.99861910     0.06000
C432        C  0.71019626  0.82079409  0.99895355    -0.10100
C433        C  0.74525079  0.83934022  0.99933871     0.03500
C434        C  0.78315917  0.82434948  0.99939468    -0.08600
C435        C  0.78579081  0.79072952  0.99905625     0.06000
C436        C  0.75045347  0.77226391  0.99866020    -0.08100
H437        H  0.68092057  0.83239674  0.99892088     0.11600
H438        H  0.81038404  0.83872978  0.99969662     0.09100
H439        H  0.75230890  0.74630243  0.99840840     0.09000
C440        C  0.78657018  0.78781731  0.24879421     0.06000
C441        C  0.74921223  0.77213781  0.24882531    -0.10100
C442        C  0.71340473  0.79004487  0.24910239     0.03500
C443        C  0.71523268  0.82372646  0.24936409    -0.08600
C444        C  0.75280276  0.83928935  0.24934236     0.06000
C445        C  0.78826983  0.82127229  0.24905573    -0.08100
H446        H  0.74801587  0.74615249  0.24862894     0.11600
H447        H  0.68767370  0.83769940  0.24957678     0.09100
H448        H  0.81726736  0.83331163  0.24903424     0.09000
C449        C  0.53596384  0.71215489  0.50099127     0.06000
C450        C  0.99870652  0.72800459  0.50073010    -0.10100
C451        C  0.96275739  0.71029015  0.50053437     0.03500
C452        C  0.96430518  0.67660063  0.50032359    -0.08600
C453        C  0.00173740  0.66082558  0.50031460     0.06000
C454        C  0.53761326  0.67869771  0.50083007    -0.08100
H455        H  0.99771769  0.75399629  0.50088622     0.11600
H456        H  0.93662710  0.66278073  0.50016857     0.09100
H457        H  0.56659202  0.66662659  0.50089700     0.09000
C458        C  0.96400642  0.71219791  0.24866547     0.06000
C459        C  0.50126345  0.72804826  0.24902878    -0.10100
C460        C  0.53721812  0.71033757  0.24932171     0.03500
C461        C  0.53568037  0.67664898  0.24967685    -0.08600
C462        C  0.49825266  0.66087186  0.24973313     0.06000
C463        C  0.96236712  0.67874157  0.24895846    -0.08100
H464        H  0.50224434  0.75403924  0.24875695     0.11600
H465        H  0.56336242  0.66283148  0.24989801     0.09100
H466        H  0.93339176  0.66666880  0.24898531     0.09000
C467        C  0.53587783  0.28922899  0.99835962     0.06000
C468        C  0.99902829  0.27157698  0.99901661    -0.10100
C469        C  0.96233751  0.28828259  0.99916596     0.03500
C470        C  0.96234467  0.32194593  0.99930073    -0.08600
C471        C  0.99894981  0.33881463  0.99929881     0.06000
C472        C  0.53578012  0.32274787  0.99879834    -0.08100
H473        H  0.99913935  0.24557297  0.99892306     0.11600
H474        H  0.93403171  0.33493934  0.99942217     0.09100
H475        H  0.56407077  0.33579685  0.99890271     0.09000
C476        C  0.96406425  0.28786017  0.24901056     0.06000
C477        C  0.50131798  0.27198737  0.24926634    -0.10100
C478        C  0.53726576  0.28970358  0.24946359     0.03500
C479        C  0.53571534  0.32339297  0.24967794    -0.08600
C480        C  0.49828196  0.33916617  0.24968906     0.06000
C481        C  0.96241455  0.32131726  0.24916866    -0.08100
H482        H  0.50230884  0.24599571  0.24910771     0.11600
H483        H  0.56339234  0.33721420  0.24983413     0.09100
H484        H  0.93343557  0.33338821  0.24910202     0.09000
O485        O  0.53447106  0.54823448  0.99623998    -0.70000
O486        O  0.53453618  0.45190943  0.99625137    -0.71000
O487        O  0.54681856  0.49996705  0.44539269    -0.59600
O488        O  0.54324409  0.50009199  0.05150043    -0.68100
O489        O  0.97652870  0.49999500  0.05879092    -0.67600
O490        O  0.97849261  0.49999999  0.44323176    -0.58900
O491        O  0.96791835  0.45195896  0.00374272    -0.71400
O492        O  0.96791499  0.54807035  0.00383074    -0.70100
Cu493      Cu  0.53705616  0.50007196  0.99597603     1.04600
Cu494      Cu  0.96586001  0.50001530  0.00406712     1.04300
C495        C  0.00098040  0.56328601  0.99989381     0.96200
C496        C  0.00098470  0.43674260  0.99977994     0.95300
C497        C  0.01264243  0.50000565  0.42651304     0.87400
C498        C  0.01211106  0.49998972  0.07247253     0.93700
O499        O  0.52152981  0.49999351  0.30677210    -0.70000
O500        O  0.52332669  0.50004888  0.19414876    -0.71000
O501        O  0.52391251  0.54776293  0.25056033    -0.59600
O502        O  0.52391995  0.45227592  0.25046140    -0.68100
O503        O  0.95582097  0.45146834  0.24957901    -0.67600
O504        O  0.95580405  0.54859426  0.24959055    -0.58900
O505        O  0.95546218  0.50002110  0.19464442    -0.71400
O506        O  0.95320325  0.50004307  0.30461217    -0.70100
Cu507      Cu  0.52557363  0.50001980  0.25053451     1.04600
Cu508      Cu  0.95274163  0.50003154  0.24956236     1.04300
C509        C  0.48738018  0.49998984  0.32349118     0.96200
C510        C  0.48938742  0.50006231  0.17716903     0.95300
C511        C  0.49083200  0.56321753  0.25036267     0.87400
C512        C  0.49084103  0.43682340  0.25023599     0.93700
C513        C  0.51705608  0.49995720  0.38617828    -0.13500
C514        C  0.48453891  0.49998101  0.36428364    -0.28700
H515        H  0.54697428  0.49994009  0.37387914     0.15500
H516        H  0.95304858  0.50006676  0.37612535     0.16100
C517        C  0.51833720  0.50008309  0.11347417    -0.13500
C518        C  0.48652912  0.50008686  0.13643927    -0.28700
H519        H  0.54878336  0.50006990  0.12455210     0.15500
H520        H  0.95562763  0.50002865  0.12434352     0.16100
C521        C  0.49241362  0.40243638  0.25009113    -0.10400
C522        C  0.49578163  0.37364006  0.24991830    -0.11900
C523        C  0.99932957  0.37337516  0.99945961    -0.10400
C524        C  0.00039621  0.40229989  0.99959938    -0.11100
C525        C  0.49576396  0.62639915  0.25005723    -0.10400
C526        C  0.49240126  0.59760356  0.25025445    -0.11900
C527        C  0.00423549  0.62635154  0.50008818    -0.10400
C528        C  0.00760323  0.59755519  0.49991650    -0.11900
C529        C  0.67500956  0.77367372  0.24910899    -0.15600
C530        C  0.64351457  0.75909063  0.24912167     0.08500
C531        C  0.60690066  0.74158810  0.24916988     0.10300
C532        C  0.57547529  0.72691072  0.24923807    -0.16500
C533        C  0.82358241  0.76998113  0.24852068    -0.15600
C534        C  0.85600946  0.75706155  0.24837731     0.08500
C535        C  0.89452000  0.74288757  0.24834423     0.10300
C536        C  0.92696198  0.72999161  0.24843628    -0.16500
C537        C  0.67620015  0.76886344  0.99830466    -0.15600
C538        C  0.64394738  0.75702246  0.50130089     0.08500
C539        C  0.60605608  0.74047508  0.99803630     0.10300
C540        C  0.57300200  0.72995159  0.50122139    -0.16500
C541        C  0.92449483  0.72685986  0.50056414    -0.15600
C542        C  0.89330849  0.74390939  0.99923270     0.08500
C543        C  0.85642677  0.76098257  0.99918865     0.10300
C544        C  0.82457006  0.77501660  0.99913389    -0.16500
C545        C  0.82365746  0.23007187  0.24884199    -0.15600
C546        C  0.85608203  0.24299053  0.24870861     0.08500
C547        C  0.89458865  0.25716510  0.24868462     0.10300
C548        C  0.92702627  0.27006327  0.24878391    -0.16500
C549        C  0.57552975  0.27313602  0.24943266    -0.15600
C550        C  0.60696366  0.25846655  0.24940350     0.08500
C551        C  0.64358720  0.24097271  0.24938706     0.10300
C552        C  0.67508676  0.22639228  0.24938602    -0.16500
C553        C  0.92475769  0.27082972  0.99923102    -0.15600
C554        C  0.89341614  0.25608558  0.99928416     0.08500
C555        C  0.85653977  0.23901076  0.99930234     0.10300
C556        C  0.82468159  0.22498342  0.99926816    -0.16500
C557        C  0.67631928  0.23121670  0.99843893    -0.15600
C558        C  0.64400710  0.24295108  0.50162892     0.08500
C559        C  0.60618656  0.25963136  0.99816242     0.10300
C560        C  0.57369842  0.27247087  0.99817616    -0.16500
C561        C  0.75942971  0.09756191  0.24981207    -0.10400
C562        C  0.75572888  0.12632469  0.24969603    -0.11900
C563        C  0.75935626  0.90249338  0.24973693    -0.10400
C564        C  0.75564776  0.87373227  0.24958375    -0.11900
C565        C  0.73363247  0.00000363  0.38586789    -0.13500
C566        C  0.76639473  0.00000502  0.36413554    -0.28700
H567        H  0.70384638  0.00001390  0.37333473     0.15500
H568        H  0.79618085  0.99999438  0.37666869     0.16100
C569        C  0.73188596  0.00003950  0.11417707    -0.13500
C570        C  0.76485559  0.00002243  0.13563084    -0.28700
H571        H  0.70220596  0.00005842  0.12694317     0.15500
H572        H  0.79451886  0.00000296  0.12282583     0.16100
C573        C  0.74065615  0.09751456  0.50026620    -0.10400
C574        C  0.74436263  0.12627584  0.50041919    -0.11900
C575        C  0.73817073  0.90250070  0.99979399    -0.10400
C576        C  0.74179831  0.87373917  0.99963539    -0.11900
O577        O  0.77196199  0.95228627  0.49988271    -0.70000
O578        O  0.77198723  0.04766182  0.49992867    -0.71000
O579        O  0.77090409  0.99996960  0.55616499    -0.59600
O580        O  0.76883570  0.00000601  0.94388831    -0.68100
O581        O  0.70192391  0.00002208  0.94437079    -0.67600
O582        O  0.70399226  0.99999201  0.55559084    -0.58900
O583        O  0.70276495  0.04854319  0.99975439    -0.71400
O584        O  0.70274349  0.95151050  0.99972154    -0.70100
Cu585      Cu  0.77358559  0.99997395  0.49988707     1.04600
Cu586      Cu  0.69978119  0.00002724  0.99972512     1.04300
C587        C  0.73891161  0.93681405  0.50010830     0.96200
C588        C  0.73665961  0.06317700  0.99992049     0.95300
C589        C  0.73711206  0.99998041  0.57344977     0.87400
C590        C  0.73510637  0.00001121  0.92655326     0.93700
O591        O  0.79889374  0.99995984  0.69490454    -0.70000
O592        O  0.79809541  0.99997178  0.80563374    -0.71000
O593        O  0.79725514  0.95144926  0.75025190    -0.59600
O594        O  0.79727696  0.04848228  0.75028177    -0.68100
O595        O  0.73028978  0.04770317  0.74994114    -0.67600
O596        O  0.73026863  0.95225578  0.74991226    -0.58900
O597        O  0.73118362  0.99998663  0.80611536    -0.71400
O598        O  0.73199394  0.99997494  0.69375224    -0.70100
Cu599      Cu  0.80023923  0.99996546  0.75027962     1.04600
Cu600      Cu  0.72858543  0.99998067  0.74991423     1.04300
C601        C  0.76594726  0.99996429  0.67675423     0.96200
C602        C  0.76491271  0.99998225  0.82345083     0.95300
C603        C  0.76336032  0.93681558  0.75008513     0.87400
C604        C  0.76338844  0.06312917  0.75012743     0.93700
C605        C  0.71282120  0.21270818  0.99874726     0.06000
C606        C  0.75056919  0.22777431  0.99879097    -0.10100
C607        C  0.78589379  0.20928976  0.99918783     0.03500
C608        C  0.78324070  0.17567123  0.99951739    -0.08600
C609        C  0.74532274  0.16070009  0.99945579     0.06000
C610        C  0.71028019  0.17926586  0.99907456    -0.08100
H611        H  0.75244201  0.25373480  0.99854294     0.11600
H612        H  0.81045644  0.16127691  0.99981588     0.09100
H613        H  0.68099675  0.16767933  0.99903845     0.09000
C614        C  0.78729169  0.21264357  0.75139054     0.06000
C615        C  0.78981478  0.17920061  0.75105359    -0.10100
C616        C  0.75476267  0.16065171  0.75066506     0.03500
C617        C  0.71685233  0.17563936  0.75060796    -0.08600
C618        C  0.71421647  0.20925911  0.75094866     0.06000
C619        C  0.74955145  0.22772752  0.75134827    -0.08100
H620        H  0.81909200  0.16760028  0.75108727     0.11600
H621        H  0.68962943  0.16125693  0.75030358     0.09100
H622        H  0.74769275  0.25368882  0.75160203     0.09000
C623        C  0.71338457  0.78777099  0.50091957     0.06000
C624        C  0.71168560  0.82122655  0.50072762    -0.10100
C625        C  0.74715308  0.83923906  0.50048573     0.03500
C626        C  0.78472253  0.82367011  0.50043953    -0.08600
C627        C  0.78654917  0.78998784  0.50062853     0.06000
C628        C  0.75074146  0.77208581  0.50085857    -0.08100
H629        H  0.68268838  0.83326986  0.50077110     0.11600
H630        H  0.81228224  0.83763898  0.50026526     0.09100
H631        H  0.75193680  0.74610011  0.50100356     0.09000
C632        C  0.78720537  0.78728564  0.75125911     0.06000
C633        C  0.74945865  0.77221742  0.75121826    -0.10100
C634        C  0.71413237  0.79070003  0.75082481     0.03500
C635        C  0.71678250  0.82431878  0.75049606    -0.08600
C636        C  0.75469924  0.83929204  0.75055489     0.06000
C637        C  0.78974336  0.82072810  0.75093276    -0.08100
H638        H  0.74758814  0.74625684  0.75146531     0.11600
H639        H  0.68956550  0.83871159  0.75019973     0.09100
H640        H  0.81902587  0.83231626  0.75096639     0.09000
C641        C  0.53574494  0.71088994  0.99824159     0.06000
C642        C  0.99893172  0.72844986  0.99918832    -0.10100
C643        C  0.96225230  0.71173232  0.99929601     0.03500
C644        C  0.96228399  0.67806920  0.99946009    -0.08600
C645        C  0.99890166  0.66121304  0.99952246     0.06000
C646        C  0.53564385  0.67737195  0.99873935    -0.08100
H647        H  0.99902411  0.75445373  0.99906095     0.11600
H648        H  0.93398052  0.66506630  0.99953959     0.09100
H649        H  0.56393337  0.66431848  0.99890544     0.09000
C650        C  0.96415073  0.71076691  0.75162895     0.06000
C651        C  0.50100211  0.72840749  0.75099271    -0.10100
C652        C  0.53769242  0.71170120  0.75084395     0.03500
C653        C  0.53768424  0.67803784  0.75070888    -0.08600
C654        C  0.50107850  0.66116995  0.75070994     0.06000
C655        C  0.96424678  0.67724799  0.75119183    -0.08100
H656        H  0.50089182  0.75441150  0.75108661     0.11600
H657        H  0.56599671  0.66504387  0.75058803     0.09100
H658        H  0.93595551  0.66419994  0.75108875     0.09000
C659        C  0.53601158  0.28781728  0.50134867     0.06000
C660        C  0.99875835  0.27194381  0.50098900    -0.10100
C661        C  0.96280492  0.28965609  0.50069312     0.03500
C662        C  0.96434489  0.32334448  0.50033322    -0.08600
C663        C  0.00177351  0.33912002  0.50027500     0.06000
C664        C  0.53765035  0.32127360  0.50105723    -0.08100
H665        H  0.99777572  0.24595295  0.50126428     0.11600
H666        H  0.93666375  0.33716309  0.50010971     0.09100
H667        H  0.56662574  0.33334664  0.50102971     0.09000
C668        C  0.96425991  0.28910610  0.75177327     0.06000
C669        C  0.50107173  0.27153463  0.75081327    -0.10100
C670        C  0.53775161  0.28825153  0.75070655     0.03500
C671        C  0.53772074  0.32191470  0.75054199    -0.08600
C672        C  0.50110352  0.33877156  0.75047804     0.06000
C673        C  0.96436287  0.32262405  0.75127545    -0.08100
H674        H  0.50097866  0.24553076  0.75094081     0.11600
H675        H  0.56602461  0.33491717  0.75046312     0.09100
H676        H  0.93607413  0.33567853  0.75111147     0.09000
O677        O  0.54420173  0.54854567  0.50042119    -0.70000
O678        O  0.54421487  0.45142001  0.50041905    -0.71000
O679        O  0.52647582  0.50004525  0.94112924    -0.59600
O680        O  0.54455706  0.49999641  0.55536055    -0.68100
O681        O  0.97669378  0.49993982  0.55585496    -0.67600
O682        O  0.96018665  0.50003602  0.94866408    -0.58900
O683        O  0.97611187  0.45222770  0.49944113    -0.71400
O684        O  0.97609897  0.54771476  0.49954502    -0.70100
Cu685      Cu  0.54727901  0.49998255  0.50044259     1.04600
Cu686      Cu  0.97444790  0.49997088  0.49946927     1.04300
C687        C  0.00917718  0.56316821  0.49977127     0.96200
C688        C  0.00919321  0.43677420  0.49963903     0.95300
C689        C  0.99092682  0.50003444  0.92734244     0.87400
C690        C  0.01063273  0.49992692  0.57283522     0.93700
O691        O  0.53982784  0.49994435  0.80134021    -0.70000
O692        O  0.52348768  0.49999303  0.69121333    -0.71000
O693        O  0.53210197  0.54802425  0.74626513    -0.59600
O694        O  0.53209575  0.45191294  0.74616995    -0.68100
O695        O  0.96554203  0.45176109  0.75376442    -0.67600
O696        O  0.96548324  0.54808629  0.75375066    -0.58900
O697        O  0.95677330  0.49990281  0.69850272    -0.71400
O698        O  0.97353924  0.49995046  0.80887426    -0.70100
Cu699      Cu  0.53415547  0.49996801  0.74593718     1.04600
Cu700      Cu  0.96296006  0.49992369  0.75402723     1.04300
C701        C  0.50908747  0.49994876  0.82266158     0.96200
C702        C  0.48790552  0.50000208  0.67753129     0.95300
C703        C  0.49903690  0.56324241  0.75022741     0.87400
C704        C  0.49902911  0.43669892  0.75010667     0.93700
C705        C  0.48446698  0.50000204  0.88727679    -0.13500
C706        C  0.51534142  0.49995649  0.86313473    -0.28700
H707        H  0.45361883  0.50002087  0.87716105     0.15500
H708        H  0.04639539  0.49997394  0.87284319     0.16100
C709        C  0.51417075  0.50000250  0.61401667    -0.13500
C710        C  0.48225950  0.50001474  0.63686066    -0.28700
H711        H  0.54438990  0.49998994  0.62566141     0.15500
H712        H  0.95123564  0.49992394  0.62545091     0.16100
C713        C  0.49961905  0.40225624  0.75022811    -0.10400
C714        C  0.50069988  0.37333178  0.75033247    -0.11900
C715        C  0.00426382  0.37359256  0.49994656    -0.10400
C716        C  0.00762587  0.40238816  0.49974735    -0.11100
C717        C  0.50069744  0.62660954  0.75054915    -0.10400
C718        C  0.49962866  0.59768494  0.75040910    -0.11900
C719        C  0.99930603  0.62665293  0.99966737    -0.10400
C720        C  0.00038784  0.59772856  0.99977154    -0.11900
C721        C  0.67534593  0.77500406  0.75074563    -0.15600
C722        C  0.64348908  0.76097472  0.75071138     0.08500
C723        C  0.60661390  0.74389818  0.75072846     0.10300
C724        C  0.57527269  0.72915352  0.75078029    -0.16500
C725        C  0.82370899  0.76877907  0.75156252    -0.15600
C726        C  0.85568252  0.75515066  0.75172978     0.08500
C727        C  0.89384291  0.74036601  0.75183001     0.10300
C728        C  0.92633085  0.72752614  0.75181370    -0.16500
C729        C  0.67637288  0.76993968  0.50116782    -0.15600
C730        C  0.64421985  0.75524924  0.99813235     0.08500
C731        C  0.60543998  0.74284919  0.50132305     0.10300
C732        C  0.57356692  0.72764132  0.99805929    -0.16500
C733        C  0.92465898  0.72917266  0.99925909    -0.15600
C734        C  0.89306272  0.74153178  0.50059330     0.08500
C735        C  0.85644149  0.75902868  0.50061082     0.10300
C736        C  0.82494363  0.77361141  0.50061360    -0.16500
C737        C  0.82380436  0.23113371  0.75170876    -0.15600
C738        C  0.85578381  0.24474906  0.75188338     0.08500
C739        C  0.89394746  0.25952323  0.75198076     0.10300
C740        C  0.92643705  0.27235617  0.75195752    -0.16500
C741        C  0.57534448  0.27081044  0.75074416    -0.15600
C742        C  0.60669499  0.25607368  0.75077081     0.08500
C743        C  0.64357743  0.23900143  0.75081510     0.10300
C744        C  0.67543530  0.22496905  0.75087020    -0.16500
C745        C  0.92454644  0.27308505  0.50077757    -0.15600
C746        C  0.89311907  0.25841049  0.50084544     0.08500
C747        C  0.85650255  0.24091154  0.50089202     0.10300
C748        C  0.82500575  0.22633102  0.50090246    -0.16500
C749        C  0.67643303  0.23002971  0.50148390    -0.15600
C750        C  0.64434660  0.24484626  0.99826715     0.08500
C751        C  0.60549767  0.25712699  0.50166468     0.10300
C752        C  0.57305617  0.27002374  0.50157504    -0.16500
C753        C  0.76184914  0.09749182  0.75020842    -0.10400
C754        C  0.75821940  0.12625312  0.75036704    -0.11900
C755        C  0.76180683  0.90245195  0.75013569    -0.10400
C756        C  0.75816936  0.87369079  0.75027309    -0.11900
C757        C  0.73341801  0.00000465  0.88561346    -0.13500
C758        C  0.76660065  0.99998916  0.86439059    -0.28700
H759        H  0.70386594  0.00001204  0.87262275     0.15500
H760        H  0.79615276  0.99998186  0.87738142     0.16100
C761        C  0.73516775  0.99998090  0.61437262    -0.13500
C762        C  0.76813682  0.99995711  0.63582708    -0.28700
H763        H  0.70550419  0.00000276  0.62717708     0.15500
H764        H  0.79781724  0.99993547  0.62306150     0.16100
C765        C  0.73821254  0.09754053  0.99987199    -0.10400
C766        C  0.74185016  0.12630161  0.99973648    -0.11900
C767        C  0.74060810  0.90244610  0.50019178    -0.10400
C768        C  0.74430952  0.87368337  0.50030865    -0.11900
loop_ 
_geom_bond_atom_site_label_1 
_geom_bond_atom_site_label_2 
_geom_bond_distance 
_geom_bond_site_symmetry_2 
_ccdc_geom_bond_type 
O1           Cu9   2.005   1_565  S
O1           C11   1.276       .  A
O2           Cu9   2.005       .  S
O2          C204   1.276       .  A
O3           Cu9   2.001       .  S
O3           C13   1.279       .  A
O4         Cu201   2.030       .  S
O4           C14   1.283   1_565  A
O5          Cu10   1.986   1_545  S
O5           C14   1.272       .  A
O6         Cu202   2.015   1_554  S
O6           C13   1.277       .  A
O7          Cu10   2.027   1_545  S
O7           C12   1.280       .  A
O8          Cu10   2.027       .  S
O8          C203   1.280       .  A
Cu9         O196   2.004   1_554  S
Cu9        Cu202   2.377   1_554  S
Cu10        O198   1.983       .  S
Cu10       Cu201   2.378       .  S
C11         O200   1.277   1_554  A
C11         C191   1.433   1_554  S
C12         O194   1.273       .  A
C12         C189   1.435       .  S
C13         C185   1.478       .  S
C14         C181   1.474       .  S
O15         Cu23   1.983       .  S
O15          C25   1.273       .  A
O16         Cu23   1.986   1_565  S
O16          C26   1.272       .  A
O17         Cu23   2.027   1_565  S
O17          C27   1.280       .  A
O18         Cu23   2.027       .  S
O18          C28   1.280       .  A
O19         Cu24   1.992       .  S
O19          C28   1.273       .  A
O20         Cu24   1.992   1_565  S
O20          C27   1.273       .  A
O21         Cu24   2.030       .  S
O21          C26   1.283   1_545  A
O22         Cu24   2.032       .  S
O22          C25   1.281       .  A
Cu23        Cu24   2.378       .  S
C25         C186   1.471       .  S
C26         C182   1.474       .  S
C27         C179   1.435       .  S
C28         C177   1.435       .  S
C29         C365   1.436       .  S
C29          C30   1.401       .  A
C29          C34   1.397       .  A
C30          C31   1.403       .  A
C30          H35   1.084       .  S
C31         C364   1.445       .  S
C31          C32   1.406       .  A
C32          C33   1.405       .  A
C32          H36   1.084       .  S
C33         C190   1.440       .  S
C33          C34   1.397       .  A
C34          H37   1.085       .  S
C38         C161   1.436       .  S
C38          C39   1.397       .  A
C38          C43   1.401       .  A
C39          C40   1.397       .  A
C39          H44   1.085       .  S
C40         C178   1.440       .  S
C40          C41   1.405       .  A
C41          C42   1.406       .  A
C41          H45   1.084       .  S
C42         C168   1.445       .  S
C42          C43   1.403       .  A
C43          H46   1.085       .  S
C47         C153   1.439       .  S
C47          C48   1.400       .  A
C47          C52   1.402       .  A
C48          C49   1.400       .  A
C48          H53   1.085       .  S
C49         C192   1.438       .  S
C49          C50   1.401       .  A
C50          C51   1.401       .  A
C50          H54   1.085       .  S
C51         C160   1.440       .  S
C51          C52   1.402       .  A
C52          H55   1.084       .  S
C56         C149   1.436       .  S
C56          C57   1.401       .  A
C56          C61   1.397       .  A
C57          C58   1.403       .  A
C57          H62   1.084       .  S
C58         C145   1.445       .  S
C58          C59   1.406       .  A
C59          C60   1.405       .  A
C59          H63   1.084       .  S
C60         C180   1.440       .  S
C60          C61   1.397       .  A
C61          H64   1.085       .  S
C65         C156   1.436       .  S
C65          C70   1.397       .  A
C65         C450   1.401   1_455  A
C66          C67   1.403       .  A
C66         C449   1.401       .  A
C66          H71   1.084       .  S
C67         C157   1.445       .  S
C67          C68   1.406       .  A
C68          C69   1.405       .  A
C68          H72   1.084       .  S
C69         C143   1.439       .  S
C69         C454   1.396       .  A
C70         C453   1.397       .  A
C70          H73   1.085       .  S
C74         C152   1.436       .  S
C74          C79   1.397       .  A
C74         C459   1.401       .  A
C75          C76   1.403       .  A
C75         C458   1.401   1_455  A
C75          H80   1.084       .  S
C76         C148   1.445       .  S
C76          C77   1.406       .  A
C77          C78   1.405   1_455  A
C77          H81   1.084       .  S
C78         C141   1.439       .  S
C78         C463   1.396       .  A
C79         C462   1.397       .  A
C79          H82   1.085       .  S
C83         C176   1.439       .  S
C83          C88   1.400       .  A
C83         C468   1.402   1_455  A
C84          C85   1.402       .  A
C84         C467   1.402       .  A
C84          H89   1.084       .  S
C85         C169   1.440       .  S
C85          C86   1.402       .  A
C86          C87   1.401       .  A
C86          H90   1.085       .  S
C87         C139   1.436       .  S
C87         C472   1.397       .  A
C88         C471   1.400   1_455  A
C88          H91   1.085       .  S
C92         C164   1.436       .  S
C92          C97   1.397       .  A
C92         C477   1.401       .  A
C93          C94   1.403       .  A
C93         C476   1.401   1_455  A
C93          H98   1.084       .  S
C94         C165   1.445       .  S
C94          C95   1.406       .  A
C95          C96   1.405   1_455  A
C95          H99   1.084       .  S
C96         C138   1.439       .  S
C96         C481   1.396       .  A
C97         C480   1.397       .  A
C97         H100   1.085       .  S
O101       Cu109   2.018       .  S
O101        C495   1.278       .  A
O102       Cu109   2.018       .  S
O102        C496   1.278       .  A
O103       Cu301   1.984       .  S
O103        C497   1.272       .  A
O104       Cu109   2.012   1_554  S
O104        C498   1.276       .  A
O105       Cu110   2.005       .  S
O105        C114   1.280       .  A
O106       Cu302   2.031       .  S
O106        C113   1.283       .  A
O107       Cu110   1.998       .  S
O107        C112   1.274       .  A
O108       Cu110   1.998       .  S
O108        C111   1.274       .  A
Cu109       O295   2.009       .  S
Cu109      Cu494   2.377   1_456  S
Cu110       O298   2.007   1_554  S
Cu110      Cu493   2.378   1_554  S
C111        O485   1.277   1_554  A
C111        C336   1.431   1_554  S
C112        O486   1.277   1_554  A
C112        C140   1.431   1_554  S
C113        O487   1.272       .  A
C113        C513   1.474       .  S
C114        O488   1.276       .  A
C114        C517   1.478       .  S
O115       Cu123   2.031       .  S
O115        C125   1.283   1_455  A
O116       Cu123   2.034       .  S
O116        C126   1.282   1_455  A
O117       Cu123   1.990       .  S
O117        C127   1.272   1_455  A
O118       Cu123   1.990       .  S
O118        C128   1.272   1_455  A
O119       Cu124   2.028       .  S
O119        C512   1.280       .  A
O120       Cu124   2.027       .  S
O120        C511   1.280       .  A
O121       Cu124   1.982       .  S
O121        C510   1.273       .  A
O122       Cu124   1.984       .  S
O122        C509   1.272       .  A
Cu123      Cu508   2.378   1_455  S
Cu124      Cu507   2.378       .  S
C125        O506   1.272       .  A
C125        C130   1.474       .  S
C126        O505   1.273       .  A
C126        C134   1.471       .  S
C127        O504   1.280       .  A
C127        C142   1.434       .  S
C128        O503   1.280       .  A
C128        C137   1.434       .  S
C129        C497   1.473       .  S
C129        C130   1.337   1_455  D
C129        H131   1.087       .  S
C130        H516   1.087       .  S
H132        C514   1.087       .  S
C133        C498   1.478       .  S
C133        C134   1.341   1_455  D
C133        H135   1.086       .  S
C134        H520   1.087       .  S
H136        C518   1.087       .  S
C137        C138   1.206       .  T
C139        C140   1.203       .  T
C141        C142   1.206       .  T
C143        C144   1.206       .  T
C144        C303   1.434       .  S
C145        C146   1.209       .  T
C146        C147   1.417       .  S
C147        C148   1.209       .  T
C149        C150   1.203       .  T
C150        C151   1.408       .  S
C151        C152   1.203       .  T
C153        C346   1.205       .  T
C154        C345   1.203       .  T
C154        C347   1.408       .  S
C155        C348   1.205       .  T
C155        C346   1.411       .  S
C156        C347   1.203       .  T
C157        C350   1.209       .  T
C158        C349   1.206       .  T
C158        C159   1.412       .  S
C159        C160   1.206       .  T
C161        C162   1.203       .  T
C162        C163   1.408       .  S
C163        C164   1.203       .  T
C165        C166   1.209       .  T
C166        C167   1.417       .  S
C167        C168   1.209       .  T
C169        C170   1.206       .  T
C170        C171   1.412       .  S
C171        C172   1.206       .  T
C172        C223   1.440       .  S
C173        C221   1.439       .  S
C173        C366   1.205       .  T
C174        C365   1.203       .  T
C174        C367   1.408       .  S
C175        C176   1.205       .  T
C175        C366   1.411       .  S
C177        C178   1.206       .  T
C179        C180   1.206       .  T
C181        C182   1.338   1_545  D
C181        H183   1.087       .  S
C182        H184   1.087       .  S
C185        C186   1.342       .  D
C185        H187   1.086       .  S
C186        H188   1.087       .  S
C189        C190   1.206       .  T
C191        C192   1.205       .  T
O193       Cu201   1.992       .  S
O193        C203   1.273       .  A
O194       Cu201   1.992   1_545  S
O195       Cu201   2.032       .  S
O195        C205   1.281       .  A
O196        C206   1.276       .  A
O197       Cu202   2.012       .  S
O197        C206   1.279       .  A
O198        C205   1.273       .  A
O199       Cu202   2.010       .  S
O199        C204   1.277   1_556  A
O200       Cu202   2.010   1_565  S
C203        C383   1.435       .  S
C204        C381   1.433   1_554  S
C205        C377   1.471       .  S
C206        C373   1.474       .  S
O207       Cu215   2.015       .  S
O207        C217   1.277       .  A
O208       Cu215   2.012       .  S
O208        C218   1.279       .  A
O209       Cu215   2.010       .  S
O209        C219   1.277       .  A
O210       Cu215   2.010   1_545  S
O210        C220   1.277       .  A
O211       Cu216   2.005   1_545  S
O211        C220   1.276       .  A
O212       Cu216   2.005       .  S
O212        C219   1.276       .  A
O213       Cu216   2.004       .  S
O213        C218   1.276       .  A
O214       Cu216   2.001       .  S
O214        C217   1.279       .  A
Cu215      Cu216   2.377       .  S
C217        C378   1.478       .  S
C218        C374   1.474       .  S
C219        C371   1.433       .  S
C220        C369   1.433       .  S
C221        C222   1.402       .  A
C221        C226   1.400       .  A
C222        C223   1.402       .  A
C222        H227   1.084       .  S
C223        C224   1.401       .  A
C224        C225   1.401       .  A
C224        H228   1.085       .  S
C225        C382   1.438       .  S
C225        C226   1.400       .  A
C226        H229   1.085       .  S
C230        C353   1.439       .  S
C230        C231   1.400       .  A
C230        C235   1.402       .  A
C231        C232   1.400       .  A
C231        H236   1.085       .  S
C232        C370   1.438       .  S
C232        C233   1.401       .  A
C233        C234   1.401       .  A
C233        H237   1.085       .  S
C234        C360   1.440       .  S
C234        C235   1.402       .  A
C235        H238   1.084       .  S
C239        C345   1.436       .  S
C239        C240   1.397       .  A
C239        C244   1.401       .  A
C240        C241   1.397       .  A
C240        H245   1.085       .  S
C241        C384   1.440       .  S
C241        C242   1.405       .  A
C242        C243   1.406       .  A
C242        H246   1.084       .  S
C243        C352   1.445       .  S
C243        C244   1.403       .  A
C244        H247   1.085       .  S
C248        C341   1.439       .  S
C248        C249   1.402       .  A
C248        C253   1.400       .  A
C249        C250   1.402       .  A
C249        H254   1.084       .  S
C250        C337   1.440       .  S
C250        C251   1.401       .  A
C251        C252   1.401       .  A
C251        H255   1.085       .  S
C252        C372   1.438       .  S
C252        C253   1.400       .  A
C253        H256   1.085       .  S
C257        C348   1.439       .  S
C257        C642   1.402   1_455  A
C257        C262   1.400       .  A
C258        C641   1.402       .  A
C258        C259   1.402       .  A
C258        H263   1.084       .  S
C259        C349   1.440       .  S
C259        C260   1.402       .  A
C260        C261   1.401       .  A
C260        H264   1.085       .  S
C261        C335   1.436       .  S
C261        C646   1.397       .  A
C262        C645   1.400   1_455  A
C262        H265   1.085       .  S
C266        C344   1.439       .  S
C266        C651   1.402       .  A
C266        C271   1.400       .  A
C267        C650   1.402   1_455  A
C267        C268   1.402       .  A
C267        H272   1.084       .  S
C268        C340   1.440       .  S
C268        C269   1.402       .  A
C269        C270   1.401       .  A
C269        H273   1.085       .  S
C270        C333   1.436       .  S
C270        C655   1.397   1_455  A
C271        C654   1.400       .  A
C271        H274   1.085       .  S
C275        C368   1.436       .  S
C275        C660   1.401   1_455  A
C275        C280   1.397       .  A
C276        C659   1.401       .  A
C276        C277   1.403       .  A
C276        H281   1.084       .  S
C277        C361   1.445       .  S
C277        C278   1.406       .  A
C278        C279   1.405       .  A
C278        H282   1.084       .  S
C279        C331   1.439       .  S
C279        C664   1.396       .  A
C280        C663   1.397       .  A
C280        H283   1.085       .  S
C284        C356   1.439       .  S
C284        C669   1.402       .  A
C284        C289   1.400       .  A
C285        C668   1.402   1_455  A
C285        C286   1.402       .  A
C285        H290   1.084       .  S
C286        C357   1.440       .  S
C286        C287   1.402       .  A
C287        C288   1.401       .  A
C287        H291   1.085       .  S
C288        C330   1.436       .  S
C288        C673   1.397   1_455  A
C289        C672   1.400       .  A
C289        H292   1.085       .  S
O293       Cu301   2.028       .  S
O293        C687   1.280       .  A
O294       Cu301   2.027       .  S
O294        C688   1.280       .  A
O295        C689   1.279   1_455  A
O296       Cu301   1.982       .  S
O296        C690   1.273       .  A
O297       Cu302   2.034       .  S
O297        C306   1.282       .  A
O298        C305   1.277       .  A
O299       Cu302   1.990       .  S
O299        C304   1.272       .  A
O300       Cu302   1.990       .  S
O300        C303   1.272       .  A
Cu301      Cu686   2.378   1_455  S
Cu302      Cu685   2.378       .  S
C303        O677   1.280       .  A
C304        O678   1.280       .  A
C304        C332   1.434       .  S
C305        O679   1.279       .  A
C305        C705   1.474       .  S
C306        O680   1.273       .  A
C306        C709   1.471       .  S
O307       Cu315   2.007       .  S
O307        C317   1.277       .  A
O308       Cu315   2.005       .  S
O308        C318   1.280   1_455  A
O309       Cu315   1.998       .  S
O309        C319   1.274   1_455  A
O310       Cu315   1.998       .  S
O310        C320   1.274   1_455  A
O311       Cu316   2.018       .  S
O311        C704   1.278       .  A
O312       Cu316   2.018       .  S
O312        C703   1.278       .  A
O313       Cu316   2.012       .  S
O313        C702   1.276       .  A
O314       Cu316   2.009       .  S
O314        C701   1.279       .  A
Cu315      Cu700   2.378   1_455  S
Cu316      Cu699   2.377       .  S
C317        O698   1.279   1_455  A
C317        C322   1.474       .  S
C318        O697   1.276       .  A
C318        C326   1.478       .  S
C319        O696   1.277       .  A
C319        C334   1.431       .  S
C320        O695   1.277       .  A
C320        C329   1.431       .  S
C321        C689   1.474       .  S
C321        C322   1.344   1_655  D
C321        H323   1.087       .  S
C322        H708   1.087       .  S
H324        C706   1.087       .  S
C325        C690   1.471       .  S
C325        C326   1.341   1_455  D
C325        H327   1.087       .  S
C326        H712   1.086       .  S
H328        C710   1.086       .  S
C329        C330   1.203   1_655  T
C331        C332   1.206       .  T
C333        C334   1.203   1_455  T
C335        C336   1.203       .  T
C337        C338   1.206       .  T
C338        C339   1.412       .  S
C339        C340   1.206       .  T
C341        C342   1.205       .  T
C342        C343   1.411       .  S
C343        C344   1.205       .  T
C350        C351   1.417       .  S
C351        C352   1.209       .  T
C353        C354   1.205       .  T
C354        C355   1.411       .  S
C355        C356   1.205       .  T
C357        C358   1.206       .  T
C358        C359   1.412       .  S
C359        C360   1.206       .  T
C361        C362   1.209       .  T
C362        C363   1.417       .  S
C363        C364   1.209       .  T
C367        C368   1.203       .  T
C369        C370   1.205       .  T
C371        C372   1.205       .  T
C373        C374   1.343   1_545  D
C373        H375   1.087   1_545  S
C374        H376   1.087   1_565  S
C377        C378   1.342       .  D
C377        H379   1.087       .  S
C378        H380   1.086       .  S
C381        C382   1.205       .  T
C383        C384   1.206       .  T
O385       Cu393   1.991   1_565  S
O385        C395   1.273   1_554  A
O386       Cu393   1.991       .  S
O386        C588   1.273   1_554  A
O387       Cu393   2.028       .  S
O387        C397   1.282       .  A
O388       Cu585   2.030       .  S
O388        C398   1.282       .  A
O389       Cu394   1.994       .  S
O389        C398   1.274       .  A
O390       Cu586   1.997   1_554  S
O390        C397   1.274       .  A
O391       Cu394   2.028   1_545  S
O391        C396   1.280       .  A
O392       Cu394   2.028       .  S
O392        C587   1.280       .  A
Cu393       O580   2.028   1_554  S
Cu393      Cu586   2.377   1_554  S
Cu394       O582   1.994       .  S
Cu394      Cu585   2.377       .  S
C395        O584   1.279       .  A
C395        C575   1.434       .  S
C396        O578   1.272       .  A
C396        C573   1.434       .  S
C397        C569   1.477       .  S
C398        C565   1.477   1_565  S
O399       Cu407   1.994       .  S
O399        C409   1.274       .  A
O400       Cu407   1.994       .  S
O400        C410   1.274       .  A
O401       Cu407   2.028   1_565  S
O401        C411   1.280       .  A
O402       Cu407   2.028       .  S
O402        C412   1.280       .  A
O403       Cu408   1.990       .  S
O403        C412   1.272       .  A
O404       Cu408   1.990   1_565  S
O404        C411   1.272       .  A
O405       Cu408   2.030       .  S
O405        C410   1.282       .  A
O406       Cu408   2.031       .  S
O406        C409   1.282       .  A
Cu407      Cu408   2.377       .  S
C409        C570   1.477       .  S
C410        C566   1.477       .  S
C411        C563   1.434       .  S
C412        C561   1.434       .  S
C413        C749   1.436       .  S
C413        C414   1.401       .  A
C413        C418   1.396       .  A
C414        C415   1.403       .  A
C414        H419   1.084       .  S
C415        C748   1.445       .  S
C415        C416   1.406       .  A
C416        C417   1.405       .  A
C416        H420   1.084       .  S
C417        C574   1.440       .  S
C417        C418   1.396       .  A
C418        H421   1.085       .  S
C422        C545   1.436       .  S
C422        C423   1.396       .  A
C422        C427   1.401       .  A
C423        C424   1.396       .  A
C423        H428   1.085       .  S
C424        C562   1.440       .  S
C424        C425   1.405       .  A
C425        C426   1.406       .  A
C425        H429   1.084       .  S
C426        C552   1.445       .  S
C426        C427   1.403       .  A
C427        H430   1.084       .  S
C431        C537   1.436       .  S
C431        C432   1.397       .  A
C431        C436   1.401       .  A
C432        C433   1.397       .  A
C432        H437   1.085       .  S
C433        C576   1.439       .  S
C433        C434   1.404       .  A
C434        C435   1.405       .  A
C434        H438   1.084       .  S
C435        C544   1.444       .  S
C435        C436   1.403       .  A
C436        H439   1.085       .  S
C440        C533   1.436       .  S
C440        C441   1.401       .  A
C440        C445   1.396       .  A
C441        C442   1.403       .  A
C441        H446   1.084       .  S
C442        C529   1.445       .  S
C442        C443   1.406       .  A
C443        C444   1.405       .  A
C443        H447   1.084       .  S
C444        C564   1.440       .  S
C444        C445   1.396       .  A
C445        H448   1.085       .  S
C449        C540   1.436       .  S
C449        C454   1.396       .  A
C450        C451   1.403       .  A
C450        H455   1.084       .  S
C451        C541   1.445       .  S
C451        C452   1.406       .  A
C452        C453   1.405   1_655  A
C452        H456   1.084       .  S
C453        C527   1.440       .  S
C454        H457   1.085       .  S
C458        C536   1.436       .  S
C458        C463   1.396       .  A
C459        C460   1.403       .  A
C459        H464   1.084       .  S
C460        C532   1.445       .  S
C460        C461   1.406       .  A
C461        C462   1.405       .  A
C461        H465   1.084       .  S
C462        C525   1.440       .  S
C463        H466   1.085       .  S
C467        C560   1.436       .  S
C467        C472   1.398       .  A
C468        C469   1.402       .  A
C468        H473   1.085       .  S
C469        C553   1.444       .  S
C469        C470   1.404       .  A
C470        C471   1.404       .  A
C470        H474   1.084       .  S
C471        C523   1.441       .  S
C472        H475   1.085       .  S
C476        C548   1.436       .  S
C476        C481   1.396       .  A
C477        C478   1.403       .  A
C477        H482   1.084       .  S
C478        C549   1.445       .  S
C478        C479   1.406       .  A
C479        C480   1.405       .  A
C479        H483   1.084       .  S
C480        C522   1.440       .  S
C481        H484   1.085       .  S
O485       Cu493   2.010       .  S
O486       Cu493   2.010       .  S
O487       Cu685   1.984       .  S
O488       Cu493   2.012   1_554  S
O489       Cu494   2.004       .  S
O489        C498   1.280   1_655  A
O490       Cu686   2.032       .  S
O490        C497   1.283   1_655  A
O491       Cu494   2.005       .  S
O491        C496   1.275   1_654  A
O492       Cu494   2.005       .  S
O492        C495   1.275   1_654  A
Cu493       O679   2.008       .  S
Cu494       O682   2.006   1_554  S
C495        C720   1.437       .  S
C496        C524   1.437       .  S
O499       Cu507   2.032       .  S
O499        C509   1.283       .  A
O500       Cu507   2.034       .  S
O500        C510   1.282       .  A
O501       Cu507   1.992       .  S
O501        C511   1.273       .  A
O502       Cu507   1.992       .  S
O502        C512   1.273       .  A
O503       Cu508   2.028       .  S
O504       Cu508   2.028       .  S
O505       Cu508   1.982       .  S
O506       Cu508   1.984       .  S
C509        C514   1.473       .  S
C510        C518   1.471       .  S
C511        C526   1.435       .  S
C512        C521   1.435       .  S
C513        C514   1.337       .  D
C513        H515   1.087       .  S
C517        C518   1.341       .  D
C517        H519   1.086       .  S
C521        C522   1.206       .  T
C523        C524   1.207   1_655  T
C525        C526   1.206       .  T
C527        C528   1.206       .  T
C528        C687   1.435       .  S
C529        C530   1.209       .  T
C530        C531   1.417       .  S
C531        C532   1.209       .  T
C533        C534   1.203       .  T
C534        C535   1.408       .  S
C535        C536   1.203       .  T
C537        C730   1.203       .  T
C538        C729   1.203       .  T
C538        C731   1.408       .  S
C539        C732   1.203       .  T
C539        C730   1.408       .  S
C540        C731   1.203       .  T
C541        C734   1.209       .  T
C542        C733   1.208       .  T
C542        C543   1.416       .  S
C543        C544   1.208       .  T
C545        C546   1.203       .  T
C546        C547   1.408       .  S
C547        C548   1.203       .  T
C549        C550   1.209       .  T
C550        C551   1.417       .  S
C551        C552   1.209       .  T
C553        C554   1.208       .  T
C554        C555   1.416       .  S
C555        C556   1.208       .  T
C556        C607   1.444       .  S
C557        C605   1.436       .  S
C557        C750   1.203       .  T
C558        C749   1.203       .  T
C558        C751   1.408       .  S
C559        C560   1.203       .  T
C559        C750   1.408       .  S
C561        C562   1.206       .  T
C563        C564   1.206       .  T
C565        C566   1.340       .  D
C565        H567   1.087       .  S
C566        H568   1.087   1_545  S
C569        C570   1.340       .  D
C569        H571   1.087       .  S
C570        H572   1.087       .  S
C573        C574   1.206       .  T
C575        C576   1.206       .  T
O577       Cu585   1.990       .  S
O577        C587   1.272       .  A
O578       Cu585   1.990   1_545  S
O579       Cu585   2.031       .  S
O579        C589   1.282       .  A
O580        C590   1.282       .  A
O581       Cu586   1.997       .  S
O581        C590   1.274       .  A
O582        C589   1.274       .  A
O583       Cu586   2.026       .  S
O583        C588   1.279       .  A
O584       Cu586   2.026   1_565  S
C587        C767   1.434       .  S
C588        C765   1.434       .  S
C589        C761   1.477       .  S
C590        C757   1.477       .  S
O591       Cu599   1.997       .  S
O591        C601   1.274       .  A
O592       Cu599   1.997       .  S
O592        C602   1.274       .  A
O593       Cu599   2.026       .  S
O593        C603   1.279       .  A
O594       Cu599   2.026   1_545  S
O594        C604   1.279       .  A
O595       Cu600   1.991   1_545  S
O595        C604   1.273       .  A
O596       Cu600   1.991       .  S
O596        C603   1.273       .  A
O597       Cu600   2.028       .  S
O597        C602   1.282       .  A
O598       Cu600   2.028       .  S
O598        C601   1.282       .  A
Cu599      Cu600   2.377       .  S
C601        C762   1.477       .  S
C602        C758   1.477       .  S
C603        C755   1.434       .  S
C604        C753   1.434       .  S
C605        C606   1.401       .  A
C605        C610   1.397       .  A
C606        C607   1.403       .  A
C606        H611   1.085       .  S
C607        C608   1.405       .  A
C608        C609   1.404       .  A
C608        H612   1.084       .  S
C609        C766   1.439       .  S
C609        C610   1.397       .  A
C610        H613   1.085       .  S
C614        C737   1.436       .  S
C614        C615   1.397       .  A
C614        C619   1.401       .  A
C615        C616   1.397       .  A
C615        H620   1.085       .  S
C616        C754   1.439       .  S
C616        C617   1.404       .  A
C617        C618   1.405       .  A
C617        H621   1.084       .  S
C618        C744   1.444       .  S
C618        C619   1.403       .  A
C619        H622   1.085       .  S
C623        C729   1.436       .  S
C623        C624   1.396       .  A
C623        C628   1.401       .  A
C624        C625   1.396       .  A
C624        H629   1.085       .  S
C625        C768   1.440       .  S
C625        C626   1.405       .  A
C626        C627   1.406       .  A
C626        H630   1.084       .  S
C627        C736   1.445       .  S
C627        C628   1.403       .  A
C628        H631   1.084       .  S
C632        C725   1.436       .  S
C632        C633   1.401       .  A
C632        C637   1.397       .  A
C633        C634   1.403       .  A
C633        H638   1.085       .  S
C634        C721   1.444       .  S
C634        C635   1.405       .  A
C635        C636   1.404       .  A
C635        H639   1.084       .  S
C636        C756   1.439       .  S
C636        C637   1.397       .  A
C637        H640   1.085       .  S
C641        C732   1.436       .  S
C641        C646   1.398       .  A
C642        C643   1.403       .  A
C642        H647   1.085       .  S
C643        C733   1.444       .  S
C643        C644   1.404       .  A
C644        C645   1.404       .  A
C644        H648   1.084       .  S
C645        C719   1.441       .  S
C646        H649   1.085       .  S
C650        C728   1.436       .  S
C650        C655   1.398       .  A
C651        C652   1.402       .  A
C651        H656   1.085       .  S
C652        C724   1.444       .  S
C652        C653   1.404       .  A
C653        C654   1.404       .  A
C653        H657   1.084       .  S
C654        C717   1.441       .  S
C655        H658   1.085       .  S
C659        C752   1.436       .  S
C659        C664   1.396       .  A
C660        C661   1.403       .  A
C660        H665   1.084       .  S
C661        C745   1.445       .  S
C661        C662   1.406       .  A
C662        C663   1.405   1_655  A
C662        H666   1.084       .  S
C663        C715   1.440       .  S
C664        H667   1.085       .  S
C668        C740   1.436       .  S
C668        C673   1.398       .  A
C669        C670   1.403       .  A
C669        H674   1.085       .  S
C670        C741   1.444       .  S
C670        C671   1.404       .  A
C671        C672   1.404       .  A
C671        H675   1.084       .  S
C672        C714   1.441       .  S
C673        H676   1.085       .  S
O677       Cu685   2.028       .  S
O678       Cu685   2.028       .  S
O680       Cu685   1.982       .  S
O681       Cu686   2.034       .  S
O681        C690   1.282   1_655  A
O682        C689   1.277       .  A
O683       Cu686   1.992       .  S
O683        C688   1.273   1_655  A
O684       Cu686   1.992       .  S
O684        C687   1.273   1_655  A
C688        C716   1.435       .  S
O691       Cu699   2.006       .  S
O691        C701   1.277       .  A
O692       Cu699   2.004       .  S
O692        C702   1.280       .  A
O693       Cu699   2.005       .  S
O693        C703   1.275       .  A
O694       Cu699   2.005       .  S
O694        C704   1.275       .  A
O695       Cu700   2.010       .  S
O696       Cu700   2.010       .  S
O697       Cu700   2.012       .  S
O698       Cu700   2.008       .  S
C701        C706   1.474       .  S
C702        C710   1.478       .  S
C703        C718   1.437       .  S
C704        C713   1.437       .  S
C705        C706   1.344       .  D
C705        H707   1.087       .  S
C709        C710   1.341       .  D
C709        H711   1.087       .  S
C713        C714   1.207       .  T
C715        C716   1.206       .  T
C717        C718   1.207       .  T
C719        C720   1.207   1_655  T
C721        C722   1.208       .  T
C722        C723   1.416       .  S
C723        C724   1.208       .  T
C725        C726   1.203       .  T
C726        C727   1.408       .  S
C727        C728   1.203       .  T
C734        C735   1.417       .  S
C735        C736   1.209       .  T
C737        C738   1.203       .  T
C738        C739   1.408       .  S
C739        C740   1.203       .  T
C741        C742   1.208       .  T
C742        C743   1.416       .  S
C743        C744   1.208       .  T
C745        C746   1.209       .  T
C746        C747   1.417       .  S
C747        C748   1.209       .  T
C751        C752   1.203       .  T
C753        C754   1.206       .  T
C755        C756   1.206       .  T
C757        C758   1.340   1_545  D
C757        H759   1.087       .  S
C758        H760   1.087       .  S
C761        C762   1.340       .  D
C761        H763   1.087   1_565  S
C762        H764   1.087       .  S
C765        C766   1.206       .  T
C767        C768   1.206       .  T
