geometry optimzed in LAMMPS
_audit_creation_date              2020-11-30 
_audit_creation_method            'lammps2cif' 
_symmetry_space_group_name_H-M    'P1' 
_symmetry_Int_Tables_number       1 
_symmetry_cell_setting            triclinic 
loop_ 
_symmetry_equiv_pos_as_xyz 
  x,y,z 
_cell_length_a                    33.17366446455657 
_cell_length_b                    33.230860204603246 
_cell_length_c                    59.67518895029869 
_cell_angle_alpha                 89.8517816521198 
_cell_angle_beta                  89.93717165727733 
_cell_angle_gamma                 89.30179768761127 
loop_ 
_atom_site_label 
_atom_site_type_symbol 
_atom_site_fract_x 
_atom_site_fract_y 
_atom_site_fract_z 
_atom_site_charge 
C1          C  0.24423045  0.50184219  0.25007346    -0.01570
C2          C  0.47617279  0.25625991  0.00186038     0.01480
C3          C  0.01806353  0.25655733  0.00129573     0.01480
C4          C  0.25224913  0.50446888  0.75216270    -0.01570
C5          C  0.49889147  0.24394808  0.75012199    -0.01570
C6          C  0.25577451  0.47896454  0.00101424     0.01480
C7          C  0.25549377  0.02087730  0.00188236     0.01480
C8          C  0.24780719  0.38264355  0.91878472     0.43370
N9          N  0.26465312  0.34030669  0.89287804     0.02260
C10         C  0.14281788  0.21264762  0.83237491    -0.05610
H11         H  0.13707301  0.18780169  0.91731179     0.07760
C12         C  0.28679621  0.14863696  0.91428039    -0.05960
Co13       Co  0.19342904  0.30347502  0.87032555     0.74180
N14         N  0.16604520  0.23228978  0.89684329    -0.25140
Co15       Co  0.19848043  0.19926583  0.87328389     0.74070
C16         C  0.25139423  0.13097620  0.92491147     0.43480
N17         N  0.33238916  0.23804800  0.89621101     0.01880
N18         N  0.23238935  0.17022861  0.89813156     0.01990
N19         N  0.14055952  0.28064233  0.83055324    -0.45990
H20         H  0.18012606  0.36873243  0.91340490     0.07740
N21         N  0.16369124  0.27199941  0.89594962     0.02270
N22         N  0.23178426  0.16885833  0.84907111     0.02010
C23         C  0.24906208  0.13421872  0.82020265     0.43620
N24         N  0.33054052  0.27769313  0.89487359    -0.24600
C25         C  0.21013691  0.35075998  0.82577589    -0.05520
N26         N  0.27935530  0.36589449  0.90768146    -0.45700
N27         N  0.21721043  0.14823501  0.83205560    -0.45930
C28         C  0.24600738  0.36292833  0.81331272     0.43390
N29         N  0.16379988  0.26786016  0.84717194     0.02260
N30         N  0.33018551  0.27325797  0.84640767    -0.24620
N31         N  0.22497239  0.33877290  0.89336824    -0.25110
N32         N  0.33174842  0.23368689  0.84735215     0.01900
H33         H  0.35859845  0.31679569  0.82503970     0.07790
H34         H  0.31671475  0.14233493  0.82819599     0.07820
N35         N  0.16564984  0.22831103  0.84852598    -0.25160
N36         N  0.27206698  0.17199080  0.89786206    -0.24770
N37         N  0.26386092  0.33293232  0.84384301     0.02260
C38         C  0.12338015  0.25529422  0.92252894     0.43660
C39         C  0.35386730  0.29302472  0.91090434    -0.06030
N40         N  0.27144681  0.16950097  0.84919133    -0.24770
H41         H  0.31845943  0.14351155  0.91760559     0.07810
N42         N  0.13830260  0.28700762  0.91102929    -0.46000
H43         H  0.35900653  0.32456469  0.91328959     0.07790
C44         C  0.36880637  0.24884098  0.81919263     0.43490
C45         C  0.21151725  0.36402474  0.90931732    -0.05520
Co46       Co  0.29785299  0.30679548  0.86956774     0.73820
N47         N  0.35616014  0.22514921  0.91261335    -0.45710
C48         C  0.12660090  0.24740762  0.82034563     0.43760
N49         N  0.27802955  0.35173205  0.82595613    -0.45700
Co50       Co  0.30258945  0.20268017  0.87279100     0.73890
C51         C  0.28523815  0.14768412  0.83194024    -0.06030
C52         C  0.14201804  0.21904700  0.91320974    -0.05590
N53         N  0.22414700  0.33204573  0.84422840    -0.25120
N54         N  0.21874158  0.14584066  0.91396453    -0.45880
H55         H  0.13756269  0.18094718  0.82978838     0.07770
C56         C  0.35303532  0.28572812  0.82934175    -0.06010
Cl57       Cl  0.24804671  0.25315485  0.87186572    -0.49010
C58         C  0.37086271  0.25820272  0.92275593     0.43520
H59         H  0.17872414  0.35545730  0.82158336     0.07730
N60         N  0.35460218  0.21780794  0.83139700    -0.45720
C61         C  0.24760319  0.36531764  0.18676559     0.43210
N62         N  0.26520419  0.33236130  0.15755757     0.02260
C63         C  0.14461961  0.21806357  0.08898545    -0.05610
H64         H  0.13935970  0.18454203  0.17396743     0.07760
C65         C  0.28067441  0.14881451  0.17457660    -0.05960
Co66       Co  0.19555277  0.30356634  0.13111225     0.74180
N67         N  0.16522116  0.23059206  0.15398685    -0.25140
Co68       Co  0.19804514  0.19910663  0.13001247     0.74070
C69         C  0.24336821  0.13664050  0.18541012     0.43480
N70         N  0.33005055  0.23165820  0.15808655     0.01880
N71         N  0.22912930  0.16884904  0.15527949     0.01990
N72         N  0.14317179  0.28615393  0.08928856    -0.45990
H73         H  0.18022473  0.36002839  0.17806348     0.07740
N74         N  0.16472828  0.27012617  0.15499972     0.02270
N75         N  0.23293278  0.16808525  0.10612372     0.02010
C76         C  0.25312957  0.12804427  0.08004427     0.43620
N77         N  0.32873596  0.27124175  0.15848510    -0.24600
C78         C  0.21670866  0.36059693  0.09134671    -0.05520
N79         N  0.27950662  0.35111786  0.17521204    -0.45700
N80         N  0.21991713  0.14409671  0.08996315    -0.45930
C81         C  0.25369678  0.37628535  0.08145495     0.43390
N82         N  0.16644818  0.27143745  0.10552476     0.02260
N83         N  0.33369170  0.27329861  0.10972073    -0.24620
N84         N  0.22556619  0.33313008  0.15666631    -0.25110
N85         N  0.33472378  0.23362452  0.10874648     0.01900
H86         H  0.36346777  0.31976349  0.09112093     0.07790
H87         H  0.31974095  0.13720025  0.08950321     0.07820
N88         N  0.16776374  0.23169627  0.10552297    -0.25160
N89         N  0.26881413  0.16915188  0.15625139    -0.24770
N90         N  0.26891147  0.33652363  0.10865129     0.02260
C91         C  0.13232796  0.25142992  0.18446810     0.43660
C92         C  0.34777255  0.28390100  0.17689776    -0.06030
N93         N  0.27266001  0.16853298  0.10743492    -0.24770
H94         H  0.31148007  0.14356008  0.17981969     0.07810
N95         N  0.14546413  0.28387337  0.17296128    -0.46000
H96         H  0.35251372  0.31490959  0.18154781     0.07790
C97         C  0.37366309  0.25302973  0.08207421     0.43490
C98         C  0.21155166  0.35380401  0.17438339    -0.05520
Co99       Co  0.29980411  0.30401547  0.13350688     0.73820
N100        N  0.34972574  0.21610892  0.17541653    -0.45710
C101        C  0.12863167  0.25409475  0.07799934     0.43760
N102        N  0.28488202  0.36005521  0.09306497    -0.45700
Co103      Co  0.30240306  0.19997825  0.13247575     0.73890
C104        C  0.28804709  0.14405308  0.09177548    -0.06030
C105        C  0.14435222  0.21613573  0.17124894    -0.05590
N106        N  0.22911870  0.33622452  0.10790527    -0.25120
N107        N  0.21276903  0.14896756  0.17215050    -0.45880
H108        H  0.13847839  0.18671861  0.08578310     0.07770
C109        C  0.35771341  0.28817013  0.09385044    -0.06010
Cl110      Cl  0.24895220  0.25166421  0.13145246    -0.49010
C111        C  0.36069303  0.24728931  0.18842207     0.43520
H112        H  0.18563812  0.36694635  0.08697493     0.07730
N113        N  0.35831386  0.22012867  0.09233557    -0.45720
C114        C  0.12952017  0.99952959  0.67886724     0.43370
N115        N  0.08910155  0.47916014  0.65295112     0.02260
C116        C  0.45892505  0.10160760  0.59039026    -0.05610
H117        H  0.43244210  0.10320135  0.67449796     0.07760
C118        C  0.39660314  0.45563360  0.67086458    -0.05960
Co119      Co  0.05087429  0.04900093  0.62826304     0.74180
N120        N  0.47777081  0.07554485  0.65357005    -0.25140
Co121      Co  0.44644187  0.04310201  0.62967157     0.74070
C122        C  0.37879718  0.99151893  0.68125791     0.43480
N123        N  0.48803040  0.41157939  0.65391260     0.01880
N124        N  0.41800180  0.00946079  0.65445224     0.01990
N125        N  0.02659537  0.10650011  0.58924574    -0.45990
H126        H  0.11093138  0.06585701  0.67189994     0.07740
N127        N  0.01744327  0.07756452  0.65315603     0.02270
N128        N  0.41610353  0.00921780  0.60565288     0.02010
C129        C  0.37382214  0.99003882  0.58032056     0.43620
N130        N  0.02778533  0.41298918  0.65392471    -0.24600
C131        C  0.10847610  0.03253487  0.58791861    -0.05520
N132        N  0.11521467  0.46644853  0.66837573    -0.45700
N133        N  0.38975718  0.02249507  0.59065373    -0.45930
C134        C  0.12996635  0.99721120  0.57884979     0.43390
N135        N  0.01509566  0.07930568  0.60424370     0.02260
N136        N  0.02717255  0.41223009  0.60489843    -0.24620
N137        N  0.08539907  0.01869218  0.65247140    -0.25110
N138        N  0.48740320  0.41073568  0.60508140     0.01900
H139        H  0.07228736  0.38428103  0.58382180     0.07790
H140        H  0.39020238  0.42309660  0.58791941     0.07820
N141        N  0.47557124  0.07636599  0.60522427    -0.25160
N142        N  0.42027057  0.46984066  0.65441136    -0.24770
N143        N  0.08806464  0.47850578  0.60439902     0.02260
C144        C  0.49998855  0.11412702  0.68111995     0.43660
C145        C  0.04145063  0.39054652  0.67110960    -0.06030
N146        N  0.41899740  0.46972180  0.60587390    -0.24770
H147        H  0.39115992  0.42422539  0.67439093     0.07810
N148        N  0.03196215  0.10035488  0.66931352    -0.46000
H149        H  0.07274077  0.38473964  0.67505363     0.07790
C150        C  0.50475020  0.37358443  0.57720552     0.43490
C151        C  0.10875408  0.03410434  0.66846821    -0.05520
Co152      Co  0.05865750  0.44487172  0.62906941     0.73820
N153        N  0.47333304  0.38922372  0.67022062    -0.45710
C154        C  0.49271458  0.12241632  0.57971636     0.43760
N155        N  0.11514356  0.46490529  0.58982922    -0.45700
Co156      Co  0.45348048  0.43979297  0.62975305     0.73890
C157        C  0.39403771  0.45481528  0.59047476    -0.06030
C158        C  0.46389268  0.09802127  0.67053901    -0.05590
N159        N  0.08411746  0.01807770  0.60385010    -0.25120
N160        N  0.39348015  0.02362785  0.67013487    -0.45880
H161        H  0.42687232  0.10596641  0.58898853     0.07770
C162        C  0.04092405  0.38957569  0.58786483    -0.06010
Cl163      Cl  0.50242988  0.99424439  0.62907938    -0.49010
C164        C  0.50509139  0.37506244  0.68187420     0.43520
H165        H  0.11188149  0.06411571  0.58416520     0.07730
N166        N  0.47286467  0.38800666  0.58887544    -0.45720
C167        C  0.49581127  0.38534536  0.31464090     0.43370
N168        N  0.01261773  0.41518434  0.34522436     0.02260
C169        C  0.38603838  0.04453591  0.40468364    -0.05610
H170        H  0.39624069  0.07336429  0.32066129     0.07760
C171        C  0.04479093  0.09781093  0.32920521    -0.05960
Co172      Co  0.44085141  0.45252949  0.36771574     0.74180
N173        N  0.41933055  0.02682980  0.34175610    -0.25140
Co174      Co  0.44902272  0.05626837  0.36702126     0.74070
C175        C  0.51201677  0.11482054  0.31603653     0.43480
N176        N  0.08300859  0.01139531  0.34800412     0.01880
N177        N  0.48735155  0.08290703  0.34394527     0.01990
N178        N  0.38253302  0.47662396  0.40617426    -0.45990
H179        H  0.42900243  0.39962325  0.32031239     0.07740
N180        N  0.41612491  0.48749613  0.34197989     0.02270
N181        N  0.47961922  0.08463776  0.39258239     0.02010
C182        C  0.49373711  0.12253966  0.42026462     0.43620
N183        N  0.07989684  0.47189945  0.34760572    -0.24600
C184        C  0.45163857  0.39304209  0.40836065    -0.05520
N185        N  0.02728725  0.39384427  0.32821754    -0.45700
N186        N  0.46321913  0.10914856  0.40759778    -0.45930
C187        C  0.48578232  0.37369817  0.42003831     0.43390
N188        N  0.40886856  0.48843304  0.39084541     0.02260
N189        N  0.07780854  0.47169955  0.39659340    -0.24620
N190        N  0.47316928  0.41969883  0.34407464    -0.25110
N191        N  0.07979185  0.01138430  0.39682794     0.01900
H192        H  0.10862813  0.42552958  0.41584000     0.07790
H193        H  0.06164252  0.10849533  0.41676406     0.07820
N194        N  0.41156756  0.02802289  0.38985022    -0.25160
N195        N  0.02666292  0.07882284  0.34608822    -0.24770
N196        N  0.00786143  0.41394532  0.39454372     0.02260
C197        C  0.38378187  0.00637951  0.31223740     0.43660
C198        C  0.10000650  0.45768595  0.32972394    -0.06030
N199        N  0.01913322  0.08073363  0.39463670    -0.24770
H200        H  0.07694390  0.09918769  0.32648385     0.07810
N201        N  0.39518571  0.47426681  0.32479581    -0.46000
H202        H  0.10285533  0.42646315  0.32486485     0.07790
C203        C  0.12135088  0.99265202  0.42275038     0.43490
C204        C  0.45995912  0.40151863  0.32553268    -0.05520
Co205      Co  0.04513727  0.44227332  0.37120434     0.73820
N206        N  0.10432915  0.02544541  0.33105933    -0.45710
C207        C  0.36637578  0.01055388  0.41522894     0.43760
N208        N  0.01951458  0.38826730  0.41037321    -0.45700
Co209      Co  0.05276306  0.04611553  0.37169193     0.73890
C210        C  0.03088847  0.10387974  0.41170956    -0.06030
C211        C  0.39963510  0.04166120  0.32395007    -0.05590
N212        N  0.46822044  0.41748874  0.39305829    -0.25120
N213        N  0.47712449  0.10457572  0.32614762    -0.45880
H214        H  0.38169518  0.07639452  0.40762335     0.07770
C215        C  0.10275287  0.45707796  0.41257611    -0.06010
Cl216      Cl  0.49691319  0.99922226  0.36978550    -0.49010
C217        C  0.11490825  0.99348746  0.31849462     0.43520
H218        H  0.41968704  0.38790245  0.41008489     0.07730
N219        N  0.10543763  0.02488417  0.41194601    -0.45720
C220        C  0.99192752  0.26726373  0.49910134     0.01480
C221        C  0.99169191  0.22535899  0.49981000     0.01480
C222        C  0.27534651  0.50476166  0.49931706     0.01480
C223        C  0.23338806  0.50167557  0.49951714     0.01480
C224        C  0.00129805  0.24752885  0.25106223    -0.01570
C225        C  0.49358903  0.28424173  0.26820569    -0.04420
C226        C  0.99173495  0.27949390  0.29238663    -0.01540
C227        C  0.99808485  0.31228431  0.30671435     0.03450
C228        C  0.49531298  0.35153929  0.29843947    -0.04420
C229        C  0.48594764  0.35761234  0.27562813    -0.01530
C230        C  0.48565121  0.32454418  0.26047221     0.03450
C231        C  0.97609118  0.24406398  0.30366133     0.38100
C232        C  0.47853517  0.39825519  0.26757247     0.38090
C233        C  0.47903922  0.33312510  0.23690033     0.36510
C234        C  0.00402233  0.30553634  0.33063678     0.36510
N235        N  0.47377071  0.34081950  0.21819483    -0.38310
N236        N  0.00871388  0.30020330  0.34963587    -0.38310
N237        N  0.47259677  0.43070153  0.26118779    -0.37750
N238        N  0.96281887  0.21718194  0.31348024    -0.37760
C239        C  0.51484902  0.14315759  0.29699065    -0.04420
C240        C  0.04281237  0.17447426  0.29710469    -0.01540
C241        C  0.04068517  0.20487902  0.28069404     0.03450
C242        C  0.50674520  0.20768360  0.26550631    -0.04420
C243        C  0.48148720  0.17272005  0.26425785    -0.01530
C244        C  0.48767798  0.14011171  0.27917386     0.03450
C245        C  0.07182501  0.17793772  0.31524354     0.38100
C246        C  0.45184395  0.16652674  0.24680577     0.38090
C247        C  0.46914227  0.10140601  0.27510774     0.36510
C248        C  0.07163434  0.23548145  0.28177924     0.36510
N249        N  0.45593652  0.06995408  0.27165121    -0.38310
N250        N  0.09718217  0.25865296  0.28356943    -0.38310
N251        N  0.42839503  0.15947123  0.23304526    -0.37750
N252        N  0.09491129  0.18131025  0.32962901    -0.37760
C253        C  0.98963136  0.19812767  0.47921734    -0.04420
C254        C  0.51263275  0.16139269  0.47842015    -0.01540
C255        C  0.50803405  0.13448936  0.46052028     0.03450
C256        C  0.48889277  0.14715184  0.44082833    -0.04420
C257        C  0.96503949  0.18251842  0.44130212    -0.01530
C258        C  0.96225815  0.20547146  0.46122174     0.03450
C259        C  0.54209210  0.15004042  0.49525629     0.38100
C260        C  0.94287894  0.19505467  0.42150598     0.38090
C261        C  0.92808608  0.23257748  0.46379263     0.36510
C262        C  0.51873811  0.09225033  0.46333769     0.36510
N263        N  0.89969484  0.25293203  0.46547727    -0.38310
N264        N  0.52587913  0.05833145  0.46575554    -0.38310
N265        N  0.92539124  0.20525077  0.40566799    -0.37750
N266        N  0.56616491  0.13893713  0.50794688    -0.37760
C267        C  0.98878362  0.29176558  0.47754797    -0.04420
C268        C  0.45833460  0.32207601  0.47543355    -0.01540
C269        C  0.45608407  0.34696310  0.45624288     0.03450
C270        C  0.48547268  0.34403004  0.43915495    -0.04420
C271        C  0.01560654  0.31349108  0.44096022    -0.01530
C272        C  0.01727991  0.28762459  0.45992350     0.03450
C273        C  0.42792893  0.32798622  0.49267080     0.38100
C274        C  0.04459682  0.30775241  0.42299683     0.38090
C275        C  0.05002402  0.25845702  0.46175823     0.36510
C276        C  0.42284341  0.37556094  0.45448814     0.36510
N277        N  0.07631693  0.23536772  0.46313027    -0.38310
N278        N  0.39524908  0.39710983  0.45349463    -0.38310
N279        N  0.06770226  0.30299244  0.40867146    -0.37750
N280        N  0.40270391  0.33467543  0.50559681    -0.37760
C281        C  0.15187746  0.99531305  0.44137192    -0.04420
C282        C  0.18430425  0.46744618  0.44361711    -0.01540
C283        C  0.21209851  0.47044710  0.46172181     0.03450
C284        C  0.20647717  0.49987438  0.47877304    -0.04420
C285        C  0.17299723  0.02682720  0.47651195    -0.01530
C286        C  0.14893837  0.02681368  0.45708519     0.03450
C287        C  0.19097257  0.43731535  0.42644749     0.38100
C288        C  0.16202653  0.05581918  0.49366235     0.38090
C289        C  0.12318030  0.06153725  0.45294221     0.36510
C290        C  0.24574914  0.44231866  0.46280051     0.36510
N291        N  0.10502131  0.09098370  0.45008667    -0.38310
N292        N  0.27269025  0.41987176  0.46302026    -0.38310
N293        N  0.15009509  0.07945483  0.50633581    -0.37750
N294        N  0.19661788  0.41337952  0.41270630    -0.37760
C295        C  0.34434548  0.01207250  0.43681317    -0.04420
C296        C  0.36318248  0.49693175  0.45608067    -0.01540
C297        C  0.34164305  0.49421091  0.47640864     0.03450
C298        C  0.30144058  0.51072912  0.47829529    -0.04420
C299        C  0.28767915  0.03473083  0.46000150    -0.01530
C300        C  0.30702495  0.03232170  0.43889573     0.03450
C301        C  0.40604425  0.48692493  0.45525759     0.38100
C302        C  0.25808440  0.06649712  0.46348357     0.38090
C303        C  0.28877295  0.05122964  0.41940962     0.36510
C304        C  0.36349697  0.47600062  0.49491083     0.36510
N305        N  0.27407410  0.06603012  0.40380691    -0.38310
N306        N  0.38342243  0.46191033  0.50885873    -0.38310
N307        N  0.23544062  0.09289292  0.46593474    -0.37750
N308        N  0.44023856  0.47965620  0.45455820    -0.37760
C309        C  0.21126740  0.49887903  0.52175048    -0.04420
C310        C  0.19103787  0.46320670  0.52779820    -0.01540
C311        C  0.16901439  0.46102508  0.54804389     0.03450
C312        C  0.16239112  0.99593346  0.56116949    -0.04420
C313        C  0.18559107  0.03035859  0.55629765    -0.01530
C314        C  0.20918145  0.03214830  0.53660626     0.03450
C315        C  0.19110080  0.42888725  0.51284893     0.38100
C316        C  0.18728323  0.06357195  0.57200207     0.38090
C317        C  0.22594907  0.07067852  0.53033915     0.36510
C318        C  0.15543039  0.42209070  0.55576850     0.36510
N319        N  0.23648783  0.10267270  0.52562277    -0.38310
N320        N  0.14591081  0.39061029  0.56203308    -0.38310
N321        N  0.18931491  0.09019502  0.58440798    -0.37750
N322        N  0.19018022  0.40124740  0.50110810    -0.37760
C323        C  0.29719395  0.50066106  0.52136914    -0.04420
C324        C  0.31498661  0.03434587  0.53141604    -0.01540
C325        C  0.33241741  0.03085224  0.55277088     0.03450
C326        C  0.34343264  0.99258805  0.56150805    -0.04420
C327        C  0.32706326  0.45810987  0.55090943    -0.01530
C328        C  0.30249754  0.46247962  0.53161097     0.03450
C329        C  0.31843604  0.07196381  0.51925819     0.38100
C330        C  0.33517102  0.41769002  0.55900859     0.38090
C331        C  0.28889211  0.42663316  0.52020181     0.36510
C332        C  0.33355318  0.06629030  0.56675965     0.36510
N333        N  0.27971434  0.39713334  0.51142920    -0.38310
N334        N  0.33238702  0.09364554  0.57869040    -0.38310
N335        N  0.34078146  0.38467258  0.56454526    -0.37750
N336        N  0.32199319  0.10184919  0.50948735    -0.37760
C337        C  0.49151704  0.15407103  0.56140573    -0.04420
C338        C  0.02631405  0.17620179  0.55528520    -0.01540
C339        C  0.02552530  0.20237729  0.53640167     0.03450
C340        C  0.99155529  0.20336482  0.52200329    -0.04420
C341        C  0.45759012  0.18059480  0.52792788    -0.01530
C342        C  0.45591017  0.16123456  0.54881723     0.03450
C343        C  0.06295394  0.17295427  0.56842399     0.38100
C344        C  0.42322619  0.17770679  0.51293694     0.38090
C345        C  0.41632796  0.15563345  0.55824488     0.36510
C346        C  0.06157906  0.22409045  0.53026978     0.36510
N347        N  0.38391197  0.15441214  0.56530368    -0.38310
N348        N  0.09078397  0.24069511  0.52540798    -0.38310
N349        N  0.39546281  0.17475928  0.50135693    -0.37750
N350        N  0.09237597  0.17048867  0.57877334    -0.37760
C351        C  0.50198935  0.34548965  0.55776160    -0.04420
C352        C  0.02831003  0.34926163  0.53933359    -0.01540
C353        C  0.02733347  0.32133716  0.52157535     0.03450
C354        C  0.99625809  0.29234666  0.52026617    -0.04420
C355        C  0.46747585  0.29122432  0.53794787    -0.01530
C356        C  0.47195310  0.31572078  0.55709692     0.03450
C357        C  0.05327735  0.38457145  0.53717286     0.38100
C358        C  0.43029803  0.26919362  0.53573010     0.38090
C359        C  0.44475129  0.31058191  0.57595187     0.36510
C360        C  0.05868816  0.32332049  0.50465479     0.36510
N361        N  0.42302760  0.30637895  0.59094476    -0.38310
N362        N  0.08446907  0.32577277  0.49165690    -0.38310
N363        N  0.39922649  0.25388165  0.53460074    -0.37750
N364        N  0.07206430  0.41337430  0.53481860    -0.37760
C365        C  0.04299256  0.24994650  0.23758885    -0.04420
C366        C  0.06543288  0.28607661  0.23356827    -0.01540
C367        C  0.09221290  0.28807428  0.21511549     0.03450
C368        C  0.10854839  0.25225963  0.20587396    -0.04420
C369        C  0.09765667  0.21598470  0.21620021    -0.01530
C370        C  0.06098218  0.21412126  0.22782604     0.03450
C371        C  0.06870828  0.31854219  0.24950659     0.38100
C372        C  0.12290614  0.18009322  0.21485963     0.38090
C373        C  0.04141815  0.17540342  0.22647701     0.36510
C374        C  0.10050109  0.32712510  0.20539709     0.36510
N375        N  0.02834769  0.14352598  0.22422425    -0.38310
N376        N  0.10612658  0.35858604  0.19772663    -0.38310
N377        N  0.14244520  0.15102278  0.21427051    -0.37750
N378        N  0.07407538  0.34469614  0.26189301    -0.37760
C379        C  0.39502408  0.24523050  0.20410919    -0.04420
C380        C  0.38935455  0.25005624  0.22711827    -0.01540
C381        C  0.42277495  0.24995643  0.24195615     0.03450
C382        C  0.46391706  0.24708043  0.23384812    -0.04420
C383        C  0.46780141  0.24578939  0.20952081    -0.01530
C384        C  0.43385113  0.24199221  0.19543781     0.03450
C385        C  0.34836044  0.25440429  0.23555939     0.38100
C386        C  0.50431920  0.25230442  0.19687820     0.38090
C387        C  0.43869240  0.23705292  0.17122363     0.36510
C388        C  0.41243162  0.25243805  0.26546294     0.36510
N389        N  0.44239622  0.23328450  0.15204989    -0.38310
N390        N  0.39967826  0.25507176  0.28346183    -0.38310
N391        N  0.03022921  0.25743090  0.18423845    -0.37750
N392        N  0.31573161  0.25788659  0.24222610    -0.37760
C393        C  0.25362484  0.09978900  0.06055106    -0.04420
C394        C  0.22627941  0.06755882  0.05912068    -0.01540
C395        C  0.22714040  0.04109206  0.04049456     0.03450
C396        C  0.25674278  0.04528496  0.02343571    -0.04420
C397        C  0.28476326  0.07726029  0.02543011    -0.01530
C398        C  0.28234217  0.10476207  0.04334929     0.03450
C399        C  0.19718923  0.06133059  0.07691541     0.38100
C400        C  0.31711592  0.08254490  0.00933950     0.38090
C401        C  0.30842867  0.13965250  0.04326053     0.36510
C402        C  0.19550416  0.01164054  0.03830815     0.36510
N403        N  0.32916699  0.16742076  0.04299817    -0.38310
N404        N  0.16983785  0.98854128  0.03673277    -0.38310
N405        N  0.34375302  0.08851956  0.99728659    -0.37750
N406        N  0.17401014  0.05624720  0.09112092    -0.37760
C407        C  0.25739723  0.45145606  0.02162781    -0.04420
C408        C  0.23186454  0.41716063  0.02313841    -0.01540
C409        C  0.23329497  0.39139300  0.04193382     0.03450
C410        C  0.25710737  0.40093174  0.06061130    -0.04420
C411        C  0.28373093  0.43365076  0.05909466    -0.01530
C412        C  0.28571896  0.45705081  0.03921632     0.03450
C413        C  0.20317042  0.40717258  0.00579774     0.38100
C414        C  0.30855337  0.44394495  0.07817970     0.38090
C415        C  0.31938892  0.48393488  0.03634694     0.36510
C416        C  0.21130436  0.35374930  0.04154845     0.36510
N417        N  0.34711899  0.50443206  0.03433767    -0.38310
N418        N  0.19412795  0.32364531  0.04111270    -0.38310
N419        N  0.32805863  0.45245046  0.09348199    -0.37750
N420        N  0.17982971  0.39699146  0.99264732    -0.37760
C421        C  0.25257097  0.04622684  0.98066690    -0.04420
C422        C  0.28309973  0.04489675  0.96397967    -0.01540
C423        C  0.28085172  0.07029677  0.94500236     0.03450
C424        C  0.25044126  0.10037668  0.94333783    -0.04420
C425        C  0.22000627  0.10200325  0.95989561    -0.01530
C426        C  0.22071580  0.07491601  0.97818859     0.03450
C427        C  0.31973370  0.02141171  0.96726836     0.38100
C428        C  0.18844362  0.13261309  0.95877999     0.38090
C429        C  0.18848866  0.07761435  0.99460603     0.36510
C430        C  0.30976248  0.06450366  0.92697828     0.36510
N431        N  0.16219862  0.08064001  0.00728219    -0.38310
N432        N  0.33282473  0.05948068  0.91265508    -0.38310
N433        N  0.16311229  0.15684637  0.95819421    -0.37750
N434        N  0.35031396  0.00473800  0.96942306    -0.37760
C435        C  0.25468207  0.45769212  0.97859414    -0.04420
C436        C  0.28727660  0.43256883  0.97212593    -0.01540
C437        C  0.28688990  0.41249610  0.95133666     0.03450
C438        C  0.25129411  0.41156040  0.93816200    -0.04420
C439        C  0.21870186  0.43724400  0.94447870    -0.01530
C440        C  0.22050468  0.46026363  0.96440968     0.03450
C441        C  0.32170637  0.42695230  0.98689255     0.38100
C442        C  0.18348728  0.44160949  0.93027554     0.38090
C443        C  0.18472376  0.48205904  0.97175844     0.36510
C444        C  0.32456319  0.39533179  0.94339265     0.36510
N445        N  0.15537457  0.49805966  0.97757149    -0.38310
N446        N  0.35596738  0.38392496  0.93765366    -0.38310
N447        N  0.15510528  0.44569784  0.91919393    -0.37750
N448        N  0.34941532  0.42209149  0.99839348    -0.37760
C449        C  0.50035091  0.20610078  0.73351765    -0.04420
C450        C  0.03064861  0.20467789  0.71607306    -0.01540
C451        C  0.02989686  0.17543253  0.69894767     0.03450
C452        C  0.50188846  0.14407517  0.69958874    -0.04420
C453        C  0.47413973  0.14252387  0.71729809    -0.01530
C454        C  0.47033784  0.17480601  0.73252026     0.03450
C455        C  0.06444207  0.23211396  0.71553300     0.38100
C456        C  0.44858255  0.10745310  0.71981896     0.38090
C457        C  0.43180299  0.17643541  0.74400506     0.36510
C458        C  0.05798039  0.17839973  0.68028638     0.36510
N459        N  0.40014142  0.17658631  0.75218075    -0.38310
N460        N  0.08034138  0.18098036  0.66546267    -0.38310
N461        N  0.42829945  0.07959101  0.72191039    -0.37750
N462        N  0.09260528  0.25217885  0.71411658    -0.37760
C463        C  0.49976337  0.28157016  0.73327903    -0.04420
C464        C  0.47274932  0.28225212  0.71423680    -0.01540
C465        C  0.47640724  0.31114809  0.69702359     0.03450
C466        C  0.50221338  0.34394146  0.69959031    -0.04420
C467        C  0.02557316  0.34673331  0.71895445    -0.01530
C468        C  0.02878568  0.31388876  0.73385582     0.03450
C469        C  0.43895429  0.25510549  0.71217219     0.38100
C470        C  0.04548688  0.38434187  0.72406079     0.38090
C471        C  0.06586921  0.31335655  0.74672170     0.36510
C472        C  0.45313373  0.30690492  0.67652103     0.36510
N473        N  0.09640597  0.31434724  0.75609020    -0.38310
N474        N  0.43464580  0.30338336  0.66021944    -0.38310
N475        N  0.06027050  0.41463325  0.72854249    -0.37750
N476        N  0.41079354  0.23553419  0.70936453    -0.37760
C477        C  0.03532128  0.24462963  0.76766710    -0.04420
C478        C  0.06778332  0.21516338  0.76891451    -0.01540
C479        C  0.09920757  0.21913630  0.78470365     0.03450
C480        C  0.09618185  0.24722568  0.80215116    -0.04420
C481        C  0.06326072  0.27400626  0.80276105    -0.01530
C482        C  0.03454395  0.27439325  0.78537594     0.03450
C483        C  0.06899062  0.17773074  0.75644458     0.38100
C484        C  0.05840739  0.30138886  0.82160648     0.38090
C485        C  0.00623388  0.30814775  0.78557742     0.36510
C486        C  0.13524579  0.19387925  0.78288675     0.36510
N487        N  0.48556769  0.33638043  0.78676626    -0.38310
N488        N  0.16393674  0.17391550  0.78131622    -0.38310
N489        N  0.05436839  0.32312838  0.83658742    -0.37750
N490        N  0.07136503  0.14695879  0.74742626    -0.37760
C491        C  0.46031970  0.24370426  0.76628828    -0.04420
C492        C  0.42825920  0.27366498  0.76637458    -0.01540
C493        C  0.39676249  0.27222520  0.78235406     0.03450
C494        C  0.39852599  0.24537702  0.80054287    -0.04420
C495        C  0.42965363  0.21645560  0.80137034    -0.01530
C496        C  0.45889642  0.21429909  0.78420952     0.03450
C497        C  0.42770364  0.30954295  0.75248618     0.38100
C498        C  0.43250710  0.18895912  0.82034218     0.38090
C499        C  0.48602958  0.17965342  0.78506893     0.36510
C500        C  0.36227779  0.29942085  0.78012772     0.36510
N501        N  0.50556379  0.15071684  0.78677021    -0.38310
N502        N  0.33516221  0.32138142  0.77826690    -0.38310
N503        N  0.43499549  0.16704770  0.83540101    -0.37750
N504        N  0.42560894  0.33929574  0.74238525    -0.37760
C505        C  0.29014072  0.00462452  0.73530355    -0.04420
C506        C  0.32539399  0.47897181  0.73773089    -0.01540
C507        C  0.35294024  0.47321152  0.71972160     0.03450
C508        C  0.34785625  0.99425461  0.69941576    -0.04420
C509        C  0.31633506  0.02269271  0.69774905    -0.01530
C510        C  0.29156968  0.03122879  0.71635396     0.03450
C511        C  0.33802636  0.46311438  0.75934178     0.38100
C512        C  0.31011310  0.04509946  0.67704973     0.38090
C513        C  0.27956838  0.07310789  0.71809167     0.36510
C514        C  0.38814088  0.44727167  0.72261113     0.36510
N515        N  0.27344108  0.10747311  0.71865638    -0.38310
N516        N  0.41634095  0.42682713  0.72487000    -0.38310
N517        N  0.30501216  0.06298113  0.66060541    -0.37750
N518        N  0.34949819  0.45009433  0.77621573    -0.37760
C519        C  0.21195775  0.00413511  0.73674618    -0.04420
C520        C  0.19953136  0.03899799  0.72436914    -0.01540
C521        C  0.17931319  0.03573280  0.70376652     0.03450
C522        C  0.15945214  0.99993944  0.69796218    -0.04420
C523        C  0.16447767  0.46659020  0.71251215    -0.01530
C524        C  0.18685680  0.46997324  0.73270137     0.03450
C525        C  0.19711515  0.07837197  0.73476688     0.38100
C526        C  0.14786587  0.42781491  0.70678367     0.38090
C527        C  0.17471547  0.44312657  0.75061603     0.36510
C528        C  0.18199620  0.06925342  0.68825002     0.36510
N529        N  0.16338308  0.42162749  0.76450536    -0.38310
N530        N  0.18512209  0.09608719  0.67598583    -0.38310
N531        N  0.13600967  0.39624999  0.70228847    -0.37750
N532        N  0.19396571  0.11006781  0.74264500    -0.37760
C533        C  0.25004811  0.04331089  0.76755219    -0.04420
C534        C  0.28272669  0.07107108  0.77048416    -0.01540
C535        C  0.27881052  0.10429950  0.78506884     0.03450
C536        C  0.24664258  0.10687396  0.80038639    -0.04420
C537        C  0.21383935  0.08085146  0.79772489    -0.01530
C538        C  0.21506498  0.05000114  0.78148211     0.03450
C539        C  0.32333536  0.06360516  0.76229448     0.38100
C540        C  0.17843995  0.08494465  0.81200419     0.38090
C541        C  0.17985823  0.02461004  0.78040867     0.36510
C542        C  0.30859577  0.13598684  0.78430964     0.36510
N543        N  0.15011878  0.00679792  0.78073133    -0.38310
N544        N  0.33215477  0.16135836  0.78369749    -0.38310
N545        N  0.15000700  0.08804096  0.82316011    -0.37750
N546        N  0.35638944  0.05919887  0.75645438    -0.37760
C547        C  0.24795785  0.39741399  0.79756400    -0.04420
C548        C  0.25140443  0.39183372  0.77426999    -0.01540
C549        C  0.25581752  0.42543899  0.75970762     0.03450
C550        C  0.25524159  0.46589640  0.76833412    -0.04420
C551        C  0.26011469  0.46880162  0.79233803    -0.01530
C552        C  0.25175160  0.43605115  0.80644632     0.03450
C553        C  0.24829117  0.35156463  0.76517351     0.38100
C554        C  0.28257368  0.50063421  0.80308537     0.38090
C555        C  0.24937062  0.44189830  0.83060735     0.36510
C556        C  0.26003204  0.41772230  0.73584591     0.36510
N557        N  0.24736025  0.44643690  0.84980196    -0.38310
N558        N  0.26334833  0.41130886  0.71687016    -0.38310
N559        N  0.30109189  0.52429040  0.81271785    -0.37750
N560        N  0.24555166  0.31947685  0.75788144    -0.37760
C561        C  0.04400860  0.25483876  0.02225037    -0.04420
C562        C  0.04157731  0.28494662  0.03907664    -0.01540
C563        C  0.06863236  0.28441134  0.05743106     0.03450
C564        C  0.10014443  0.25543053  0.05860123    -0.04420
C565        C  0.10386705  0.22664272  0.04131759    -0.01530
C566        C  0.07539494  0.22541021  0.02383672     0.03450
C567        C  0.01396172  0.31883452  0.03674367     0.38100
C568        C  0.13829984  0.19914498  0.04065276     0.38090
C569        C  0.07895436  0.19295442  0.00767654     0.36510
C570        C  0.06369892  0.31383518  0.07517383     0.36510
N571        N  0.08305080  0.16631262  0.99539343    -0.38310
N572        N  0.05961663  0.33730672  0.08931620    -0.38310
N573        N  0.16563885  0.17719701  0.03988949    -0.37750
N574        N  0.99298028  0.34676675  0.03516457    -0.37760
C575        C  0.45217063  0.25620838  0.02356981    -0.04420
C576        C  0.45623375  0.22488640  0.03970537    -0.01540
C577        C  0.43118095  0.22416967  0.05894804     0.03450
C578        C  0.40005027  0.25314909  0.06174359    -0.04420
C579        C  0.39442189  0.28296590  0.04506839    -0.01530
C580        C  0.42096157  0.28537443  0.02667891     0.03450
C581        C  0.48320006  0.19100917  0.03573027     0.38100
C582        C  0.35978525  0.31016351  0.04587439     0.38090
C583        C  0.41555233  0.31864420  0.01110226     0.36510
C584        C  0.43759068  0.19334594  0.07587942     0.36510
N585        N  0.41011808  0.34576932  0.99923809    -0.38310
N586        N  0.44276644  0.16875959  0.08937948    -0.38310
N587        N  0.33223978  0.33187691  0.04618597    -0.37750
N588        N  0.50364616  0.16303698  0.03285460    -0.37760
C589        C  0.04177968  0.25834833  0.97952219    -0.04420
C590        C  0.03819309  0.22822446  0.96283251    -0.01540
C591        C  0.06290131  0.22892052  0.94352610     0.03450
C592        C  0.09367714  0.25777110  0.94129417    -0.04420
C593        C  0.09734350  0.28783995  0.95774601    -0.01530
C594        C  0.07149964  0.28846580  0.97653017     0.03450
C595        C  0.01232583  0.19387703  0.96629059     0.38100
C596        C  0.12908086  0.31740008  0.95599094     0.38090
C597        C  0.07631672  0.32058695  0.99270982     0.36510
C598        C  0.05595257  0.20001737  0.92579203     0.36510
N599        N  0.08131438  0.34686591  0.00505185    -0.38310
N600        N  0.05010432  0.17699415  0.91167722    -0.38310
N601        N  0.15440379  0.34092037  0.95467795    -0.37750
N602        N  0.49277797  0.16559583  0.96874339    -0.37760
C603        C  0.45069880  0.25617601  0.98067185    -0.04420
C604        C  0.45378847  0.28691492  0.96420341    -0.01540
C605        C  0.42936568  0.28634184  0.94480312     0.03450
C606        C  0.39852041  0.25759522  0.94252625    -0.04420
C607        C  0.39370360  0.22837366  0.95951053    -0.01530
C608        C  0.42022288  0.22680564  0.97796659     0.03450
C609        C  0.47901135  0.32158829  0.96792815     0.38100
C610        C  0.36008597  0.20077582  0.95881770     0.38090
C611        C  0.41564008  0.19415209  0.99394837     0.36510
C612        C  0.43689831  0.31517914  0.92703562     0.36510
N613        N  0.41086247  0.16747590  0.00613575    -0.38310
N614        N  0.44327999  0.33820606  0.91292350    -0.38310
N615        N  0.33327652  0.17882024  0.95879440    -0.37750
N616        N  0.49789108  0.35022700  0.97059691    -0.37760
C617        C  0.35455054  0.00407090  0.29300906    -0.04420
C618        C  0.34473623  0.03766757  0.27929515    -0.01540
C619        C  0.31447418  0.03508776  0.26264176     0.03450
C620        C  0.28657897  0.00228449  0.26269694    -0.04420
C621        C  0.29856302  0.46785148  0.27599457    -0.01530
C622        C  0.33403329  0.46778684  0.28892907     0.03450
C623        C  0.36385600  0.07630223  0.28229769     0.38100
C624        C  0.27342340  0.43267379  0.27887955     0.38090
C625        C  0.34697186  0.42987408  0.29907531     0.36510
C626        C  0.31652420  0.06511343  0.24502340     0.36510
N627        N  0.35576039  0.39903782  0.30682166    -0.38310
N628        N  0.32146471  0.08912973  0.23122548    -0.38310
N629        N  0.25604418  0.40345359  0.28271450    -0.37750
N630        N  0.37695709  0.10826794  0.28408417    -0.37760
C631        C  0.20901380  0.00421360  0.26845842    -0.04420
C632        C  0.16700265  0.00751838  0.26237290    -0.01540
C633        C  0.13626796  0.00415518  0.27881101     0.03450
C634        C  0.14622447  0.99538929  0.30112897    -0.04420
C635        C  0.18644593  0.49493382  0.30776917    -0.01530
C636        C  0.21661924  0.50508668  0.29236281     0.03450
C637        C  0.15356556  0.01434927  0.23960664     0.38100
C638        C  0.19655838  0.48757187  0.33120338     0.38090
C639        C  0.25074976  0.52482678  0.30260499     0.36510
C640        C  0.09401520  0.00849384  0.27270579     0.36510
N641        N  0.27594581  0.54132990  0.31218259    -0.38310
N642        N  0.06036648  0.01203652  0.26789627    -0.38310
N643        N  0.20448545  0.48170891  0.34982007    -0.37750
N644        N  0.13963916  0.02070631  0.22216099    -0.37760
C645        C  0.23660619  0.03817994  0.23287378    -0.04420
C646        C  0.23134595  0.03246669  0.20898656    -0.01540
C647        C  0.23725987  0.06430585  0.19390556     0.03450
C648        C  0.23938351  0.10371134  0.20175502    -0.04420
C649        C  0.23442601  0.11150658  0.22469619    -0.01530
C650        C  0.23257977  0.07922214  0.24026446     0.03450
C651        C  0.21290775  0.99721142  0.19910735     0.38100
C652        C  0.23364007  0.15296227  0.23237121     0.38090
C653        C  0.22820181  0.08975242  0.26367382     0.36510
C654        C  0.23964361  0.05656006  0.16991198     0.36510
N655        N  0.22392809  0.10076128  0.28191212    -0.38310
N656        N  0.24162970  0.05048766  0.15085043    -0.38310
N657        N  0.23305384  0.18601046  0.23844593    -0.37750
N658        N  0.19734418  0.97045097  0.19040966    -0.37760
C659        C  0.25044649  0.39482372  0.20527104    -0.04420
C660        C  0.22206447  0.39506411  0.22267110    -0.01540
C661        C  0.21899431  0.42807160  0.23759212     0.03450
C662        C  0.24694166  0.46101307  0.23615161    -0.04420
C663        C  0.28009715  0.45556701  0.22059032    -0.01530
C664        C  0.28089664  0.42370695  0.20511275     0.03450
C665        C  0.19821730  0.35923713  0.22635430     0.38100
C666        C  0.31288216  0.48383992  0.21830273     0.38090
C667        C  0.31253364  0.42228404  0.18812682     0.36510
C668        C  0.18833446  0.42445154  0.25475352     0.36510
N669        N  0.33781678  0.42143396  0.17474287    -0.38310
N670        N  0.16394067  0.41831451  0.26818948    -0.38310
N671        N  0.34074055  0.50352361  0.21480239    -0.37750
N672        N  0.18030052  0.33022667  0.22981718    -0.37760
C673        C  0.24422287  0.00184350  0.25007321    -0.01570
C674        C  0.47617035  0.75626024  0.00186062     0.01480
C675        C  0.01806113  0.75655674  0.00129579     0.01480
C676        C  0.25224420  0.00446846  0.75216262    -0.01570
C677        C  0.49889014  0.74394804  0.75012181    -0.01570
C678        C  0.25577188  0.97896450  0.00101358     0.01480
C679        C  0.25549603  0.52087742  0.00188315     0.01480
C680        C  0.24780555  0.88264314  0.91878440     0.43370
N681        N  0.26465145  0.84030636  0.89287773     0.02260
C682        C  0.14281611  0.71264681  0.83237509    -0.05610
H683        H  0.13707144  0.68780063  0.91731206     0.07760
C684        C  0.28679562  0.64863713  0.91428077    -0.05960
Co685      Co  0.19342728  0.80347404  0.87032576     0.74180
N686        N  0.16604376  0.73228873  0.89684359    -0.25140
Co687      Co  0.19847921  0.69926490  0.87328413     0.74070
C688        C  0.25139391  0.63097600  0.92491192     0.43480
N689        N  0.33238781  0.73804829  0.89621104     0.01880
N690        N  0.23238847  0.67022798  0.89813189     0.01990
N691        N  0.14055752  0.78064154  0.83055373    -0.45990
H692        H  0.18012448  0.86873138  0.91340507     0.07740
N693        N  0.16368979  0.77199837  0.89594994     0.02270
N694        N  0.23178343  0.66885761  0.84907133     0.02010
C695        C  0.24906215  0.63421852  0.82020285     0.43620
N696        N  0.33053918  0.77769339  0.89487333    -0.24600
C697        C  0.21013401  0.85075889  0.82577603    -0.05520
N698        N  0.27935366  0.86589439  0.90768102    -0.45700
N699        N  0.21721007  0.64823432  0.83205567    -0.45930
C700        C  0.24600406  0.86292751  0.81331260     0.43390
N701        N  0.16379802  0.76785916  0.84717232     0.02260
N702        N  0.33018384  0.77325749  0.84640739    -0.24620
N703        N  0.22497074  0.83877215  0.89336820    -0.25110
N704        N  0.33174719  0.73368645  0.84735223     0.01900
H705        H  0.35859630  0.81679483  0.82503895     0.07790
H706        H  0.31671453  0.64233529  0.82819646     0.07820
N707        N  0.16564820  0.72831001  0.84852620    -0.25160
N708        N  0.27206608  0.67199067  0.89786239    -0.24770
N709        N  0.26385858  0.83293157  0.84384275     0.02260
C710        C  0.12337852  0.75529316  0.92252921     0.43660
C711        C  0.35386594  0.79302530  0.91090398    -0.06030
N712        N  0.27144598  0.66950055  0.84919172    -0.24770
H713        H  0.31845891  0.64351212  0.91760596     0.07810
N714        N  0.13830103  0.78700654  0.91102957    -0.46000
H715        H  0.35900519  0.82456538  0.91328900     0.07790
C716        C  0.36880498  0.74884002  0.81919256     0.43490
C717        C  0.21151563  0.86402393  0.90931730    -0.05520
Co718      Co  0.29785125  0.80679517  0.86956742     0.73820
N719        N  0.35615867  0.72514985  0.91261349    -0.45710
C720        C  0.12659885  0.74740702  0.82034602     0.43760
N721        N  0.27802664  0.85173145  0.82595576    -0.45700
Co722      Co  0.30258833  0.70268002  0.87279124     0.73890
C723        C  0.28523783  0.64768405  0.83194065    -0.06030
C724        C  0.14201651  0.71904593  0.91321001    -0.05590
N725        N  0.22414468  0.83204477  0.84422843    -0.25120
N726        N  0.21874105  0.64584000  0.91396496    -0.45880
H727        H  0.13756104  0.68094638  0.82978840     0.07770
C728        C  0.35303348  0.78572734  0.82934131    -0.06010
Cl729      Cl  0.24804523  0.75315425  0.87186581    -0.49010
C730        C  0.37086119  0.75820357  0.92275587     0.43520
H731        H  0.17872111  0.85545607  0.82158375     0.07730
N732        N  0.35460113  0.71780724  0.83139724    -0.45720
C733        C  0.24759567  0.86531944  0.18676501     0.43210
N734        N  0.26519828  0.83236380  0.15755696     0.02260
C735        C  0.14461833  0.71806085  0.08898539    -0.05610
H736        H  0.13935783  0.68454298  0.17396916     0.07760
C737        C  0.28067458  0.64881736  0.17457783    -0.05960
Co738      Co  0.19554886  0.80356607  0.13111140     0.74180
N739        N  0.16521865  0.73059193  0.15398701    -0.25140
Co740      Co  0.19804391  0.69910613  0.13001312     0.74070
C741        C  0.24336898  0.63664158  0.18541127     0.43480
N742        N  0.33004714  0.73166329  0.15808786     0.01880
N743        N  0.22912869  0.66885002  0.15528069     0.01990
N744        N  0.14316967  0.78615120  0.08928789    -0.45990
H745        H  0.18021744  0.86002837  0.17806233     0.07740
N746        N  0.16472479  0.77012617  0.15499895     0.02270
N747        N  0.23293294  0.66808487  0.10612483     0.02010
C748        C  0.25313115  0.62804404  0.08004553     0.43620
N749        N  0.32873177  0.77124680  0.15848570    -0.24600
C750        C  0.21670434  0.86059626  0.09134559    -0.05520
N751        N  0.27949962  0.85112027  0.17521168    -0.45700
N752        N  0.21991821  0.64409573  0.08996429    -0.45930
C753        C  0.25369240  0.87628544  0.08145414     0.43390
N754        N  0.16644605  0.77143548  0.10552424     0.02260
N755        N  0.33368913  0.77330151  0.10972134    -0.24620
N756        N  0.22556035  0.83313164  0.15666536    -0.25110
N757        N  0.33472215  0.73362740  0.10874753     0.01900
H758        H  0.36346446  0.81976639  0.09112118     0.07790
H759        H  0.31974218  0.63720232  0.08950463     0.07820
N760        N  0.16776212  0.73169430  0.10552292    -0.25160
N761        N  0.26881349  0.66915434  0.15625266    -0.24770
N762        N  0.26890718  0.83652450  0.10865072     0.02260
C763        C  0.13232519  0.75143173  0.18446780     0.43660
C764        C  0.34776722  0.78390766  0.17689840    -0.06030
N765        N  0.27266015  0.66853386  0.10743616    -0.24770
H766        H  0.31148045  0.64356388  0.17982080     0.07810
N767        N  0.14546053  0.78387441  0.17296018    -0.46000
H768        H  0.35250755  0.81491666  0.18154789     0.07790
C769        C  0.37366148  0.75303250  0.08207515     0.43490
C770        C  0.21154474  0.85380521  0.17438235    -0.05520
Co771      Co  0.29979987  0.80401829  0.13350685     0.73820
N772        N  0.34972154  0.71611566  0.17541855    -0.45710
C773        C  0.12862997  0.75409164  0.07799894     0.43760
N774        N  0.28487765  0.86005627  0.09306451    -0.45700
Co775      Co  0.30240174  0.69998111  0.13247698     0.73890
C776        C  0.28804809  0.64405414  0.09177683    -0.06030
C777        C  0.14435002  0.71613654  0.17124957    -0.05590
N778        N  0.22911447  0.83622437  0.10790435    -0.25120
N779        N  0.21276924  0.64896756  0.17215164    -0.45880
H780        H  0.13847746  0.68671573  0.08578330     0.07770
C781        C  0.35771082  0.78817298  0.09385100    -0.06010
Cl782      Cl  0.24894952  0.75166536  0.13145269    -0.49010
C783        C  0.36068774  0.74729707  0.18842373     0.43520
H784        H  0.18563378  0.86694503  0.08697358     0.07730
N785        N  0.35831275  0.72013151  0.09233686    -0.45720
C786        C  0.12952601  0.49953088  0.67886676     0.43370
N787        N  0.08909582  0.97915917  0.65295145     0.02260
C788        C  0.45892823  0.60160812  0.59039132    -0.05610
H789        H  0.43244684  0.60320041  0.67449779     0.07760
C790        C  0.39659671  0.95563329  0.67086352    -0.05960
Co791      Co  0.05087939  0.54900133  0.62826240     0.74180
N792        N  0.47777595  0.57554500  0.65356976    -0.25140
Co793      Co  0.44644725  0.54310167  0.62967169     0.74070
C794        C  0.37880338  0.49151943  0.68125867     0.43480
N795        N  0.48802406  0.91157884  0.65391196     0.01880
N796        N  0.41800760  0.50946077  0.65445269     0.01990
N797        N  0.02659844  0.60649886  0.58924409    -0.45990
H798        H  0.11093693  0.56585824  0.67189923     0.07740
N799        N  0.01744834  0.57756543  0.65315552     0.02270
N800        N  0.41610949  0.50921672  0.60565306     0.02010
C801        C  0.37382698  0.49003622  0.58032169     0.43620
N802        N  0.02777900  0.91298886  0.65392431    -0.24600
C803        C  0.10848144  0.53253492  0.58791831    -0.05520
N804        N  0.11520886  0.96644732  0.66837607    -0.45700
N805        N  0.38976315  0.52249319  0.59065368    -0.45930
C806        C  0.12997255  0.49721142  0.57884991     0.43390
N807        N  0.01509995  0.57930496  0.60424272     0.02260
N808        N  0.02716691  0.91223043  0.60489803    -0.24620
N809        N  0.08540469  0.51869316  0.65247089    -0.25110
N810        N  0.48739755  0.91073616  0.60508076     0.01900
H811        H  0.07228188  0.88428164  0.58382140     0.07790
H812        H  0.39020203  0.92309886  0.58791436     0.07820
N813        N  0.47557565  0.57636571  0.60522436    -0.25160
N814        N  0.42026442  0.96984065  0.65441051    -0.24770
N815        N  0.08805914  0.97850572  0.60439923     0.02260
C816        C  0.49999302  0.61412746  0.68111958     0.43660
C817        C  0.04144422  0.89054654  0.67110933    -0.06030
N818        N  0.41899227  0.96972290  0.60587272    -0.24770
H819        H  0.39115329  0.92422502  0.67438958     0.07810
N820        N  0.03196690  0.60035609  0.66931301    -0.46000
H821        H  0.07273435  0.88474011  0.67505359     0.07790
C822        C  0.50474483  0.87358546  0.57720485     0.43490
C823        C  0.10875979  0.53410554  0.66846762    -0.05520
Co824      Co  0.05865168  0.94487146  0.62906935     0.73820
N825        N  0.47332663  0.88922314  0.67021999    -0.45710
C826        C  0.49271676  0.62241524  0.57971556     0.43760
N827        N  0.11513735  0.96490511  0.58982909    -0.45700
Co828      Co  0.45347463  0.93979319  0.62975219     0.73890
C829        C  0.39403431  0.95481735  0.59047231    -0.06030
C830        C  0.46389748  0.59802107  0.67053874    -0.05590
N831        N  0.08412255  0.51807772  0.60384965    -0.25120
N832        N  0.39348597  0.52362811  0.67013526    -0.45880
H833        H  0.42687551  0.60596922  0.58899227     0.07770
C834        C  0.04091857  0.88957634  0.58786437    -0.06010
Cl835      Cl  0.50243546  0.49424443  0.62907949    -0.49010
C836        C  0.50508501  0.87506230  0.68187380     0.43520
H837        H  0.11188658  0.56411578  0.58416490     0.07730
N838        N  0.47285913  0.88800745  0.58887464    -0.45720
C839        C  0.49580461  0.88534482  0.31463970     0.43370
N840        N  0.01261101  0.91518505  0.34522300     0.02260
C841        C  0.38604396  0.54453548  0.40468390    -0.05610
H842        H  0.39624868  0.57336293  0.32066153     0.07760
C843        C  0.04479660  0.59780910  0.32920532    -0.05960
Co844      Co  0.44084497  0.95253033  0.36771457     0.74180
N845        N  0.41933695  0.52682850  0.34175690    -0.25140
Co846      Co  0.44902927  0.55626699  0.36702205     0.74070
C847        C  0.51202182  0.61481819  0.31603689     0.43480
N848        N  0.08301548  0.51139397  0.34800458     0.01880
N849        N  0.48735777  0.58290524  0.34394601     0.01990
N850        N  0.38252760  0.97662431  0.40617346    -0.45990
H851        H  0.42899565  0.89962300  0.32031111     0.07740
N852        N  0.41611890  0.98749737  0.34197894     0.02270
N853        N  0.47962612  0.58463616  0.39258303     0.02010
C854        C  0.49374429  0.62253778  0.42026528     0.43620
N855        N  0.07988978  0.97190082  0.34760494    -0.24600
C856        C  0.45163198  0.89304219  0.40835942    -0.05520
N857        N  0.02728049  0.89384437  0.32821636    -0.45700
N858        N  0.46322616  0.60914672  0.40759855    -0.45930
C859        C  0.48577593  0.87369833  0.42003706     0.43390
N860        N  0.40886241  0.98843383  0.39084436     0.02260
N861        N  0.07780114  0.97170018  0.39659270    -0.24620
N862        N  0.47316258  0.91969947  0.34407323    -0.25110
N863        N  0.07979926  0.51138367  0.39682836     0.01900
H864        H  0.10861964  0.92552982  0.41583951     0.07790
H865        H  0.06164971  0.60849414  0.41676424     0.07820
N866        N  0.41157382  0.52802204  0.38985101    -0.25160
N867        N  0.02666921  0.57882122  0.34608863    -0.24770
N868        N  0.00785464  0.91394586  0.39454250     0.02260
C869        C  0.38378895  0.50637824  0.31223790     0.43660
C870        C  0.09999885  0.95768773  0.32972287    -0.06030
N871        N  0.01914018  0.58073232  0.39463710    -0.24770
H872        H  0.07694947  0.59918605  0.32648361     0.07810
N873        N  0.39517948  0.97426806  0.32479499    -0.46000
H874        H  0.10284731  0.92646508  0.32486344     0.07790
C875        C  0.12135939  0.49265193  0.42275034     0.43490
C876        C  0.45995241  0.90151865  0.32553137    -0.05520
Co877      Co  0.04513034  0.94227419  0.37120329     0.73820
N878        N  0.10433651  0.52544372  0.33105987    -0.45710
C879        C  0.36638062  0.51055382  0.41522914     0.43760
N880        N  0.01950797  0.88826790  0.41037194    -0.45700
Co881      Co  0.05276992  0.54611438  0.37169231     0.73890
C882        C  0.03089561  0.60387834  0.41170994    -0.06030
C883        C  0.39964225  0.54165986  0.32395059    -0.05590
N884        N  0.46821367  0.91748908  0.39305707    -0.25120
N885        N  0.47713000  0.60457348  0.32614838    -0.45880
H886        H  0.38170052  0.57639418  0.40762320     0.07770
C887        C  0.10274475  0.95707828  0.41257567    -0.06010
Cl888      Cl  0.49691990  0.49922119  0.36978637    -0.49010
C889        C  0.11491621  0.49348544  0.31849555     0.43520
H890        H  0.41968049  0.88790234  0.41008356     0.07730
N891        N  0.10544562  0.52488386  0.41194602    -0.45720
C892        C  0.99192730  0.76726522  0.49910053     0.01480
C893        C  0.99169425  0.72536053  0.49980923     0.01480
C894        C  0.27533950  0.00475787  0.49931613     0.01480
C895        C  0.23338102  0.00167393  0.49951645     0.01480
C896        C  0.00129711  0.74752460  0.25106243    -0.01570
C897        C  0.49358564  0.78423803  0.26820574    -0.04420
C898        C  0.99173193  0.77949155  0.29238688    -0.01540
C899        C  0.99808030  0.81228314  0.30671410     0.03450
C900        C  0.49530658  0.85153765  0.29843868    -0.04420
C901        C  0.48594031  0.85760887  0.27562725    -0.01530
C902        C  0.48564489  0.82453972  0.26047184     0.03450
C903        C  0.97609124  0.74406114  0.30366248     0.38100
C904        C  0.47852573  0.89825090  0.26757096     0.38090
C905        C  0.47903081  0.83311865  0.23689988     0.36510
C906        C  0.00401840  0.80553669  0.33063663     0.36510
N907        N  0.47376107  0.84081013  0.21819411    -0.38310
N908        N  0.00871042  0.80020482  0.34963578    -0.38310
N909        N  0.47258569  0.93069666  0.26118580    -0.37750
N910        N  0.96282162  0.71717864  0.31348217    -0.37760
C911        C  0.51485274  0.64315519  0.29699108    -0.04420
C912        C  0.04281459  0.67447319  0.29710525    -0.01540
C913        C  0.04068491  0.70487872  0.28069523     0.03450
C914        C  0.50674504  0.70768095  0.26550728    -0.04420
C915        C  0.48148944  0.67271594  0.26425826    -0.01530
C916        C  0.48768128  0.64010820  0.27917449     0.03450
C917        C  0.07182821  0.67793699  0.31524357     0.38100
C918        C  0.45185013  0.66652007  0.24680437     0.38090
C919        C  0.46914684  0.60140181  0.27510857     0.36510
C920        C  0.07163115  0.73548426  0.28178086     0.36510
N921        N  0.45594196  0.56994943  0.27165225    -0.38310
N922        N  0.09717570  0.75865949  0.28357060    -0.38310
N923        N  0.42840419  0.65946379  0.23304240    -0.37750
N924        N  0.09491534  0.68130971  0.32962861    -0.37760
C925        C  0.98963660  0.69812950  0.47921644    -0.04420
C926        C  0.51264138  0.66139671  0.47841948    -0.01540
C927        C  0.50804404  0.63449186  0.46052023     0.03450
C928        C  0.48890029  0.64715139  0.44082842    -0.04420
C929        C  0.96504465  0.68251643  0.44130178    -0.01530
C930        C  0.96226245  0.70547051  0.46122094     0.03450
C931        C  0.54210255  0.65004841  0.49525546     0.38100
C932        C  0.94288232  0.69504992  0.42150570     0.38090
C933        C  0.92808867  0.73257451  0.46379150     0.36510
C934        C  0.51875154  0.59225386  0.46333848     0.36510
N935        N  0.89969597  0.75292712  0.46547582    -0.38310
N936        N  0.52589509  0.55833565  0.46575707    -0.38310
N937        N  0.92539315  0.70524382  0.40566780    -0.37750
N938        N  0.56617693  0.63894862  0.50794604    -0.37760
C939        C  0.98878197  0.79176657  0.47754705    -0.04420
C940        C  0.45833040  0.82207432  0.47543223    -0.01540
C941        C  0.45607778  0.84696046  0.45624122     0.03450
C942        C  0.48546723  0.84402980  0.43915358    -0.04420
C943        C  0.01560344  0.81349315  0.44095922    -0.01530
C944        C  0.01727867  0.78762731  0.45992271     0.03450
C945        C  0.42792414  0.82798231  0.49266940     0.38100
C946        C  0.04459425  0.80775595  0.42299595     0.38090
C947        C  0.05002508  0.75846236  0.46175778     0.36510
C948        C  0.42283373  0.87555414  0.45448570     0.36510
N949        N  0.07631982  0.73537520  0.46313009    -0.38310
N950        N  0.39523661  0.89709938  0.45349161    -0.38310
N951        N  0.06770013  0.80299710  0.40867069    -0.37750
N952        N  0.40269858  0.83466930  0.50559543    -0.37760
C953        C  0.15188579  0.49531332  0.44137190    -0.04420
C954        C  0.18429563  0.96744544  0.44361693    -0.01540
C955        C  0.21209010  0.97044572  0.46172153     0.03450
C956        C  0.20647045  0.99987406  0.47877228    -0.04420
C957        C  0.17300247  0.52682586  0.47651279    -0.01530
C958        C  0.14894595  0.52681368  0.45708520     0.03450
C959        C  0.19096314  0.93731425  0.42644743     0.38100
C960        C  0.16202695  0.55581427  0.49366409     0.38090
C961        C  0.12319077  0.56153896  0.45294114     0.36510
C962        C  0.24573870  0.94231486  0.46280114     0.36510
N963        N  0.10503449  0.59098678  0.45008468    -0.38310
N964        N  0.27267805  0.91986588  0.46302226    -0.38310
N965        N  0.15009102  0.57944656  0.50633821    -0.37750
N966        N  0.19660785  0.91337810  0.41270634    -0.37760
C967        C  0.34435084  0.51207360  0.43681351    -0.04420
C968        C  0.36317414  0.99692376  0.45607958    -0.01540
C969        C  0.34163256  0.99419888  0.47640661     0.03450
C970        C  0.30143285  0.01072324  0.47829410    -0.04420
C971        C  0.28768384  0.53473175  0.46000141    -0.01530
C972        C  0.30702874  0.53232009  0.43889547     0.03450
C973        C  0.40603517  0.98691375  0.45525697     0.38100
C974        C  0.25808740  0.56649691  0.46348229     0.38090
C975        C  0.28877436  0.55122296  0.41940855     0.36510
C976        C  0.36348040  0.97597496  0.49490692     0.36510
N977        N  0.27407370  0.56601943  0.40380521    -0.38310
N978        N  0.38340089  0.96187308  0.50885346    -0.38310
N979        N  0.23544208  0.59289168  0.46593257    -0.37750
N980        N  0.44022904  0.97964274  0.45455796    -0.37760
C981        C  0.21125998  0.99887793  0.52174970    -0.04420
C982        C  0.19102733  0.96320687  0.52779656    -0.01540
C983        C  0.16900469  0.96102512  0.54804248     0.03450
C984        C  0.16239831  0.49593400  0.56117012    -0.04420
C985        C  0.18559655  0.53036010  0.55629782    -0.01530
C986        C  0.20918638  0.53215031  0.53660629     0.03450
C987        C  0.19108642  0.92888876  0.51284636     0.38100
C988        C  0.18728742  0.56357422  0.57200179     0.38090
C989        C  0.22594955  0.57068183  0.53033782     0.36510
C990        C  0.15541919  0.92209090  0.55576649     0.36510
N991        N  0.23648426  0.60267672  0.52562004    -0.38310
N992        N  0.14589864  0.89061042  0.56203046    -0.38310
N993        N  0.18931818  0.59019795  0.58440731    -0.37750
N994        N  0.19016278  0.90124988  0.50110491    -0.37760
C995        C  0.29718804  0.00065999  0.52136803    -0.04420
C996        C  0.31498623  0.53434681  0.53142079    -0.01540
C997        C  0.33241449  0.53084966  0.55277606     0.03450
C998        C  0.34343764  0.49258474  0.56150917    -0.04420
C999        C  0.32704918  0.95811317  0.55091285    -0.01530
C1000       C  0.30248545  0.96248092  0.53161350     0.03450
C1001       C  0.31843529  0.57196748  0.51926564     0.38100
C1002       C  0.33514175  0.91769531  0.55901952     0.38090
C1003       C  0.28887558  0.92663316  0.52020726     0.36510
C1004       C  0.33353986  0.56628293  0.56676911     0.36510
N1005       N  0.27969457  0.89713265  0.51143646    -0.38310
N1006       N  0.33236595  0.59363349  0.57870311    -0.38310
N1007       N  0.34073957  0.88467951  0.56456292    -0.37750
N1008       N  0.32199284  0.60185488  0.50949677    -0.37760
C1009       C  0.49151776  0.65406857  0.56140401    -0.04420
C1010       C  0.02631276  0.67620450  0.55528570    -0.01540
C1011       C  0.02552440  0.70238035  0.53640229     0.03450
C1012       C  0.99155654  0.70336551  0.52200236    -0.04420
C1013       C  0.45759308  0.68059111  0.52792461    -0.01530
C1014       C  0.45591258  0.66122599  0.54881267     0.03450
C1015       C  0.06295059  0.67296145  0.56842659     0.38100
C1016       C  0.42323114  0.67770270  0.51293213     0.38090
C1017       C  0.41632856  0.65560406  0.55823373     0.36510
C1018       C  0.06157696  0.72409724  0.53027238     0.36510
N1019       N  0.38390877  0.65436556  0.56528582    -0.38310
N1020       N  0.09078096  0.74070493  0.52541213    -0.38310
N1021       N  0.39546887  0.67475434  0.50135137    -0.37750
N1022       N  0.09237104  0.67049934  0.57877755    -0.37760
C1023       C  0.50198439  0.84549149  0.55776068    -0.04420
C1024       C  0.02830411  0.84926580  0.53933246    -0.01540
C1025       C  0.02732924  0.82134139  0.52157423     0.03450
C1026       C  0.99625597  0.79234860  0.52026524    -0.04420
C1027       C  0.46747404  0.79122412  0.53794705    -0.01530
C1028       C  0.47194988  0.81572090  0.55709609     0.03450
C1029       C  0.05326821  0.88457789  0.53717155     0.38100
C1030       C  0.43029823  0.76918991  0.53572964     0.38090
C1031       C  0.44474855  0.81058058  0.57595110     0.36510
C1032       C  0.05868380  0.82332684  0.50465368     0.36510
N1033       N  0.42302523  0.80637654  0.59094407    -0.38310
N1034       N  0.08446460  0.82578093  0.49165585    -0.38310
N1035       N  0.39922839  0.75387451  0.53460056    -0.37750
N1036       N  0.07205231  0.91338260  0.53481720    -0.37760
C1037       C  0.04299287  0.74994498  0.23758989    -0.04420
C1038       C  0.06542283  0.78607929  0.23356415    -0.01540
C1039       C  0.09220021  0.78807694  0.21511040     0.03450
C1040       C  0.10854707  0.75226308  0.20587407    -0.04420
C1041       C  0.09766709  0.71598899  0.21620552    -0.01530
C1042       C  0.06099413  0.71411968  0.22783290     0.03450
C1043       C  0.06870012  0.81854579  0.24950171     0.38100
C1044       C  0.12292353  0.68010236  0.21486521     0.38090
C1045       C  0.04144107  0.67539541  0.22648866     0.36510
C1046       C  0.10047898  0.82712649  0.20538778     0.36510
N1047       N  0.02837867  0.64351357  0.22424024    -0.38310
N1048       N  0.10609838  0.85858590  0.19771388    -0.38310
N1049       N  0.14246718  0.65103503  0.21427588    -0.37750
N1050       N  0.07406811  0.84470053  0.26188750    -0.37760
C1051       C  0.39502056  0.74523931  0.20410976    -0.04420
C1052       C  0.38935295  0.75005719  0.22711935    -0.01540
C1053       C  0.42277431  0.74995142  0.24195660     0.03450
C1054       C  0.46391615  0.74707348  0.23384800    -0.04420
C1055       C  0.46779936  0.74577897  0.20952044    -0.01530
C1056       C  0.43384653  0.74199964  0.19543725     0.03450
C1057       C  0.34835945  0.75440462  0.23556157     0.38100
C1058       C  0.50432331  0.75225466  0.19687707     0.38090
C1059       C  0.43868400  0.73707084  0.17122200     0.36510
C1060       C  0.41243166  0.75242567  0.26546372     0.36510
N1061       N  0.44238485  0.73331064  0.15204758    -0.38310
N1062       N  0.39967782  0.75505291  0.28346279    -0.38310
N1063       N  0.03023729  0.75734752  0.18423540    -0.37750
N1064       N  0.31573113  0.75788646  0.24222911    -0.37760
C1065       C  0.25362711  0.59978853  0.06055232    -0.04420
C1066       C  0.22628190  0.56755814  0.05912180    -0.01540
C1067       C  0.22714295  0.54109159  0.04049556     0.03450
C1068       C  0.25674507  0.54528492  0.02343661    -0.04420
C1069       C  0.28476534  0.57726044  0.02543110    -0.01530
C1070       C  0.28234439  0.60476186  0.04335052     0.03450
C1071       C  0.19719181  0.56132947  0.07691653     0.38100
C1072       C  0.31711759  0.58254563  0.00934031     0.38090
C1073       C  0.30843089  0.63965227  0.04326194     0.36510
C1074       C  0.19550695  0.51163982  0.03830912     0.36510
N1075       N  0.32916922  0.66742052  0.04299970    -0.38310
N1076       N  0.16984084  0.48854035  0.03673371    -0.38310
N1077       N  0.34375433  0.58852069  0.99728721    -0.37750
N1078       N  0.17401279  0.55624571  0.09112203    -0.37760
C1079       C  0.25739398  0.95145622  0.02162719    -0.04420
C1080       C  0.23186099  0.91716102  0.02313767    -0.01540
C1081       C  0.23329115  0.89139328  0.04193301     0.03450
C1082       C  0.25710321  0.90093198  0.06061061    -0.04420
C1083       C  0.28372686  0.93365095  0.05909418    -0.01530
C1084       C  0.28571546  0.95705087  0.03921584     0.03450
C1085       C  0.20316671  0.90717343  0.00579701     0.38100
C1086       C  0.30854885  0.94394521  0.07817939     0.38090
C1087       C  0.31938569  0.98393466  0.03634663     0.36510
C1088       C  0.21130072  0.85374948  0.04154739     0.36510
N1089       N  0.34711598  0.00443160  0.03433752    -0.38310
N1090       N  0.19412449  0.82364539  0.04111146    -0.38310
N1091       N  0.32805376  0.95245080  0.09348181    -0.37750
N1092       N  0.17982579  0.89699272  0.99264660    -0.37760
C1093       C  0.25257269  0.54622710  0.98066771    -0.04420
C1094       C  0.28310115  0.54489727  0.96398030    -0.01540
C1095       C  0.28085245  0.57029707  0.94500290     0.03450
C1096       C  0.25044155  0.60037655  0.94333840    -0.04420
C1097       C  0.22000688  0.60200291  0.95989637    -0.01530
C1098       C  0.22071716  0.57491592  0.97818948     0.03450
C1099       C  0.31973545  0.52141270  0.96726885     0.38100
C1100       C  0.18844373  0.63261223  0.95878074     0.38090
C1101       C  0.18849036  0.57761408  0.99460713     0.36510
C1102       C  0.30976294  0.56450411  0.92697867     0.36510
N1103       N  0.16220057  0.58063956  0.00728347    -0.38310
N1104       N  0.33282496  0.55948125  0.91265535    -0.38310
N1105       N  0.16311202  0.65684512  0.95819490    -0.37750
N1106       N  0.35031593  0.50473934  0.96942344    -0.37760
C1107       C  0.25467973  0.95769193  0.97859358    -0.04420
C1108       C  0.28727422  0.93256832  0.97212568    -0.01540
C1109       C  0.28688785  0.91249552  0.95133646     0.03450
C1110       C  0.25129237  0.91156009  0.93816157    -0.04420
C1111       C  0.21870016  0.93724397  0.94447795    -0.01530
C1112       C  0.22050269  0.96026368  0.96440888     0.03450
C1113       C  0.32170359  0.92695159  0.98689258     0.38100
C1114       C  0.18348596  0.94160960  0.93027451     0.38090
C1115       C  0.18472178  0.98205946  0.97175733     0.36510
C1116       C  0.32456118  0.89533081  0.94339278     0.36510
N1117       N  0.15537258  0.99806035  0.97757014    -0.38310
N1118       N  0.35596549  0.88392373  0.93765415    -0.38310
N1119       N  0.15510428  0.94569801  0.91919266    -0.37750
N1120       N  0.34941223  0.92209062  0.99839372    -0.37760
C1121       C  0.50035106  0.70610099  0.73351738    -0.04420
C1122       C  0.03064905  0.70467939  0.71607289    -0.01540
C1123       C  0.02989886  0.67543393  0.69894753     0.03450
C1124       C  0.50189187  0.64407537  0.69958853    -0.04420
C1125       C  0.47414302  0.64252286  0.71729783    -0.01530
C1126       C  0.47033955  0.67480484  0.73252002     0.03450
C1127       C  0.06444151  0.73211669  0.71553306     0.38100
C1128       C  0.44858750  0.60745088  0.71981870     0.38090
C1129       C  0.43180488  0.67643227  0.74400506     0.36510
C1130       C  0.05798255  0.67840216  0.68028638     0.36510
N1131       N  0.40014350  0.67658144  0.75218097    -0.38310
N1132       N  0.08034367  0.68098358  0.66546277    -0.38310
N1133       N  0.42830574  0.57958781  0.72191014    -0.37750
N1134       N  0.09260401  0.75218261  0.71411686    -0.37760
C1135       C  0.49976054  0.78157012  0.73327884    -0.04420
C1136       C  0.47274618  0.78225110  0.71423671    -0.01540
C1137       C  0.47640262  0.81114733  0.69702353     0.03450
C1138       C  0.50220751  0.84394167  0.69959016    -0.04420
C1139       C  0.02556724  0.84673448  0.71895430    -0.01530
C1140       C  0.02878131  0.81389001  0.73385566     0.03450
C1141       C  0.43895212  0.75510323  0.71217230     0.38100
C1142       C  0.04547894  0.88434406  0.72406074     0.38090
C1143       C  0.06586466  0.81335945  0.74672168     0.36510
C1144       C  0.45312882  0.80690353  0.67652112     0.36510
N1145       N  0.09640125  0.81435145  0.75609029    -0.38310
N1146       N  0.43464064  0.80338147  0.66021966    -0.38310
N1147       N  0.06026083  0.91463627  0.72854251    -0.37750
N1148       N  0.41079206  0.73553083  0.70936486    -0.37760
C1149       C  0.03532014  0.74463008  0.76766686    -0.04420
C1150       C  0.06778248  0.71516404  0.76891424    -0.01540
C1151       C  0.09920643  0.71913673  0.78470359     0.03450
C1152       C  0.09618021  0.74722559  0.80215130    -0.04420
C1153       C  0.06325908  0.77400623  0.80276109    -0.01530
C1154       C  0.03454238  0.77439328  0.78537590     0.03450
C1155       C  0.06899023  0.67773144  0.75644427     0.38100
C1156       C  0.05840558  0.80138872  0.82160655     0.38090
C1157       C  0.00623150  0.80814711  0.78557768     0.36510
C1158       C  0.13524474  0.69387976  0.78288679     0.36510
N1159       N  0.48556456  0.83637921  0.78676675    -0.38310
N1160       N  0.16393572  0.67391601  0.78131638    -0.38310
N1161       N  0.05436647  0.82312818  0.83658751    -0.37750
N1162       N  0.07136503  0.64695951  0.74742595    -0.37760
C1163       C  0.46031819  0.74370343  0.76628807    -0.04420
C1164       C  0.42825705  0.77366357  0.76637427    -0.01540
C1165       C  0.39676018  0.77222322  0.78235362     0.03450
C1166       C  0.39852440  0.74537575  0.80054270    -0.04420
C1167       C  0.42965263  0.71645495  0.80137035    -0.01530
C1168       C  0.45889545  0.71429859  0.78420950     0.03450
C1169       C  0.42770105  0.80954183  0.75248611     0.38100
C1170       C  0.43250664  0.68895903  0.82034241     0.38090
C1171       C  0.48602948  0.67965363  0.78506923     0.36510
C1172       C  0.36227453  0.79941759  0.78012689     0.36510
N1173       N  0.50556446  0.65071761  0.78677077    -0.38310
N1174       N  0.33515810  0.82137704  0.77826577    -0.38310
N1175       N  0.43499546  0.66704806  0.83540142    -0.37750
N1176       N  0.42560596  0.83929482  0.74238539    -0.37760
C1177       C  0.29014606  0.50462546  0.73530390    -0.04420
C1178       C  0.32538818  0.97897008  0.73773013    -0.01540
C1179       C  0.35293402  0.97320984  0.71972065     0.03450
C1180       C  0.34786229  0.49425540  0.69941644    -0.04420
C1181       C  0.31634059  0.52269286  0.69774931    -0.01530
C1182       C  0.29157475  0.53122909  0.71635402     0.03450
C1183       C  0.33802072  0.96311200  0.75934085     0.38100
C1184       C  0.31011851  0.54509876  0.67704972     0.38090
C1185       C  0.27957249  0.57310799  0.71809121     0.36510
C1186       C  0.38813415  0.94726915  0.72260975     0.36510
N1187       N  0.27344443  0.60747311  0.71865546    -0.38310
N1188       N  0.41633381  0.92682391  0.72486827    -0.38310
N1189       N  0.30501746  0.56297973  0.66060517    -0.37750
N1190       N  0.34949254  0.95009150  0.77621469    -0.37760
C1191       C  0.21196294  0.50413539  0.73674605    -0.04420
C1192       C  0.19953589  0.53899867  0.72436948    -0.01540
C1193       C  0.17931791  0.53573409  0.70376676     0.03450
C1194       C  0.15945779  0.49994056  0.69796180    -0.04420
C1195       C  0.16447115  0.96658980  0.71251312    -0.01530
C1196       C  0.18685065  0.96997336  0.73270219     0.03450
C1197       C  0.19711963  0.57837240  0.73476754     0.38100
C1198       C  0.14785817  0.92781471  0.70678532     0.38090
C1199       C  0.17470940  0.94312763  0.75061732     0.36510
C1200       C  0.18200034  0.56925553  0.68825077     0.36510
N1201       N  0.16337721  0.92162936  0.76450710    -0.38310
N1202       N  0.18512586  0.59609000  0.67598703    -0.38310
N1203       N  0.13600107  0.89624991  0.70229061    -0.37750
N1204       N  0.19397020  0.61006806  0.74264588    -0.37760
C1205       C  0.25005187  0.54331099  0.76755243    -0.04420
C1206       C  0.28272930  0.57107247  0.77048433    -0.01540
C1207       C  0.27881179  0.60430071  0.78506903     0.03450
C1208       C  0.24664367  0.60687390  0.80038655    -0.04420
C1209       C  0.21384154  0.58085011  0.79772509    -0.01530
C1210       C  0.21506845  0.54999983  0.78148235     0.03450
C1211       C  0.32333814  0.56360823  0.76229448     0.38100
C1212       C  0.17844206  0.58494191  0.81200445     0.38090
C1213       C  0.17986280  0.52460721  0.78040899     0.36510
C1214       C  0.30859569  0.63598932  0.78430983     0.36510
N1215       N  0.15012417  0.50679375  0.78073181    -0.38310
N1216       N  0.33215356  0.66136190  0.78369766    -0.38310
N1217       N  0.15000908  0.58803712  0.82316043    -0.37750
N1218       N  0.35639229  0.55920321  0.75645422    -0.37760
C1219       C  0.24795370  0.89741328  0.79756391    -0.04420
C1220       C  0.25139948  0.89183319  0.77426986    -0.01540
C1221       C  0.25581178  0.92543856  0.75970750     0.03450
C1222       C  0.25523640  0.96589598  0.76833406    -0.04420
C1223       C  0.26010965  0.96880110  0.79233798    -0.01530
C1224       C  0.25174701  0.93605047  0.80644624     0.03450
C1225       C  0.24828636  0.85156409  0.76517337     0.38100
C1226       C  0.28256851  0.00063368  0.80308538     0.38090
C1227       C  0.24936612  0.94189746  0.83060730     0.36510
C1228       C  0.26002519  0.91772194  0.73584571     0.36510
N1229       N  0.24735582  0.94643593  0.84980192    -0.38310
N1230       N  0.26334058  0.91130854  0.71686991    -0.38310
N1231       N  0.30108663  0.02428971  0.81271804    -0.37750
N1232       N  0.24554692  0.81947631  0.75788129    -0.37760
C1233       C  0.04400627  0.75483731  0.02225034    -0.04420
C1234       C  0.04157562  0.78494495  0.03907671    -0.01540
C1235       C  0.06863058  0.78440877  0.05743113     0.03450
C1236       C  0.10014206  0.75542727  0.05860117    -0.04420
C1237       C  0.10386392  0.72663943  0.04131752    -0.01530
C1238       C  0.07539185  0.72540791  0.02383660     0.03450
C1239       C  0.01396084  0.81883355  0.03674387     0.38100
C1240       C  0.13829594  0.69914074  0.04065270     0.38090
C1241       C  0.07895052  0.69295232  0.00767625     0.36510
C1242       C  0.06369762  0.81383247  0.07517402     0.36510
N1243       N  0.08304636  0.66631064  0.99539301    -0.38310
N1244       N  0.05961571  0.83730391  0.08931647    -0.38310
N1245       N  0.16563436  0.67719204  0.03988943    -0.37750
N1246       N  0.99298007  0.84676631  0.03516488    -0.37760
C1247       C  0.45216834  0.75620922  0.02357018    -0.04420
C1248       C  0.45623111  0.72488737  0.03970585    -0.01540
C1249       C  0.43117876  0.72417144  0.05894873     0.03450
C1250       C  0.40004863  0.75315148  0.06174442    -0.04420
C1251       C  0.39442053  0.78296815  0.04506908    -0.01530
C1252       C  0.42095991  0.78537592  0.02667940     0.03450
C1253       C  0.48319655  0.69100948  0.03573067     0.38100
C1254       C  0.35978441  0.81016641  0.04587511     0.38090
C1255       C  0.41555106  0.81864564  0.01110268     0.36510
C1256       C  0.43758840  0.69334785  0.07588021     0.36510
N1257       N  0.41011713  0.84577075  0.99923847    -0.38310
N1258       N  0.44276411  0.66876161  0.08938032    -0.38310
N1259       N  0.33223938  0.83188037  0.04618666    -0.37750
N1260       N  0.50364195  0.66303681  0.03285493    -0.37760
C1261       C  0.04177727  0.75834778  0.97952221    -0.04420
C1262       C  0.03819041  0.72822417  0.96283239    -0.01540
C1263       C  0.06289909  0.72891991  0.94352613     0.03450
C1264       C  0.09367531  0.75777013  0.94129437    -0.04420
C1265       C  0.09734173  0.78783888  0.95774626    -0.01530
C1266       C  0.07149767  0.78846489  0.97653034     0.03450
C1267       C  0.01232227  0.69387732  0.96629017     0.38100
C1268       C  0.12907938  0.81739873  0.95599130     0.38090
C1269       C  0.07631501  0.82058587  0.99271007     0.36510
C1270       C  0.05595047  0.70001680  0.92579203     0.36510
N1271       N  0.08131295  0.84686472  0.00505213    -0.38310
N1272       N  0.05010233  0.67699361  0.91167719    -0.38310
N1273       N  0.15440255  0.84091876  0.95467836    -0.37750
N1274       N  0.49277365  0.66559659  0.96874272    -0.37760
C1275       C  0.45069624  0.75617685  0.98067217    -0.04420
C1276       C  0.45378638  0.78691567  0.96420371    -0.01540
C1277       C  0.42936375  0.78634276  0.94480335     0.03450
C1278       C  0.39851829  0.75759637  0.94252643    -0.04420
C1279       C  0.39370083  0.72837513  0.95951082    -0.01530
C1280       C  0.42021992  0.72680693  0.97796695     0.03450
C1281       C  0.47900970  0.82158872  0.96792845     0.38100
C1282       C  0.36008273  0.70077786  0.95881805     0.38090
C1283       C  0.41563664  0.69415353  0.99394878     0.36510
C1284       C  0.43689674  0.81517996  0.92703586     0.36510
N1285       N  0.41085866  0.66747748  0.00613621    -0.38310
N1286       N  0.44327870  0.83820681  0.91292374    -0.38310
N1287       N  0.33327289  0.67882275  0.95879480    -0.37750
N1288       N  0.49788980  0.85022718  0.97059721    -0.37760
C1289       C  0.35455865  0.50406973  0.29300900    -0.04420
C1290       C  0.34474368  0.53766672  0.27929542    -0.01540
C1291       C  0.31448187  0.53508675  0.26264187     0.03450
C1292       C  0.28658697  0.50228321  0.26269687    -0.04420
C1293       C  0.29855419  0.96785301  0.27599505    -0.01530
C1294       C  0.33402403  0.96778833  0.28892991     0.03450
C1295       C  0.36386233  0.57630180  0.28229846     0.38100
C1296       C  0.27341413  0.93267555  0.27887985     0.38090
C1297       C  0.34696092  0.92987604  0.29907738     0.36510
C1298       C  0.31653178  0.56511256  0.24502358     0.36510
N1299       N  0.35574843  0.89904042  0.30682488    -0.38310
N1300       N  0.32147197  0.58912900  0.23122568    -0.38310
N1301       N  0.25603438  0.90345557  0.28271456    -0.37750
N1302       N  0.37696260  0.60826779  0.28408530    -0.37760
C1303       C  0.20902159  0.50421147  0.26845893    -0.04420
C1304       C  0.16701027  0.50751602  0.26237363    -0.01540
C1305       C  0.13627574  0.50415262  0.27881183     0.03450
C1306       C  0.14623241  0.49538695  0.30112978    -0.04420
C1307       C  0.18643790  0.99493634  0.30776853    -0.01530
C1308       C  0.21661120  0.00508941  0.29236228     0.03450
C1309       C  0.15357262  0.51434715  0.23960750     0.38100
C1310       C  0.19655025  0.98757440  0.33120275     0.38090
C1311       C  0.25074125  0.02483041  0.30260443     0.36510
C1312       C  0.09402288  0.50849091  0.27270673     0.36510
N1313       N  0.27593709  0.04133419  0.31218184    -0.38310
N1314       N  0.06037409  0.51203325  0.26789729    -0.38310
N1315       N  0.20447724  0.98171144  0.34981945    -0.37750
N1316       N  0.13964534  0.52070442  0.22216209    -0.37760
C1317       C  0.23661286  0.53817910  0.23287436    -0.04420
C1318       C  0.23135043  0.53246655  0.20898720    -0.01540
C1319       C  0.23726155  0.56430648  0.19390627     0.03450
C1320       C  0.23938624  0.60371173  0.20175602    -0.04420
C1321       C  0.23443305  0.61150607  0.22469756    -0.01530
C1322       C  0.23258744  0.57922109  0.24026551     0.03450
C1323       C  0.21291298  0.49721073  0.19910812     0.38100
C1324       C  0.23365105  0.65296140  0.23237325     0.38090
C1325       C  0.22821124  0.58975059  0.26367508     0.36510
C1326       C  0.23964240  0.55656160  0.16991251     0.36510
N1327       N  0.22393892  0.60075894  0.28191357    -0.38310
N1328       N  0.24162628  0.55048991  0.15085081    -0.38310
N1329       N  0.23306789  0.68600929  0.23844850    -0.37750
N1330       N  0.19734992  0.47044976  0.19041063    -0.37760
C1331       C  0.25043833  0.89482476  0.20527097    -0.04420
C1332       C  0.22205344  0.89506722  0.22266968    -0.01540
C1333       C  0.21898505  0.92807374  0.23759150     0.03450
C1334       C  0.24693388  0.96101402  0.23615168    -0.04420
C1335       C  0.28009046  0.95556658  0.22059129    -0.01530
C1336       C  0.28089112  0.92370538  0.20511449     0.03450
C1337       C  0.19820010  0.85924357  0.22635040     0.38100
C1338       C  0.31287578  0.98383924  0.21830381     0.38090
C1339       C  0.31253268  0.92227867  0.18813123     0.36510
C1340       C  0.18832534  0.92445388  0.25475300     0.36510
N1341       N  0.33781961  0.92142555  0.17474954    -0.38310
N1342       N  0.16393163  0.91831695  0.26818903    -0.38310
N1343       N  0.34073437  0.00352272  0.21480357    -0.37750
N1344       N  0.18027754  0.83023594  0.22981121    -0.37760
C1345       C  0.74423045  0.50184219  0.25007346    -0.01570
C1346       C  0.97617278  0.25625990  0.00186038     0.01480
C1347       C  0.51806353  0.25655733  0.00129573     0.01480
C1348       C  0.75224913  0.50446889  0.75216270    -0.01570
C1349       C  0.99889147  0.24394807  0.75012199    -0.01570
C1350       C  0.75577451  0.47896454  0.00101424     0.01480
C1351       C  0.75549374  0.02087731  0.00188236     0.01480
C1352       C  0.74780719  0.38264355  0.91878471     0.43370
N1353       N  0.76465312  0.34030669  0.89287803     0.02260
C1354       C  0.64281788  0.21264763  0.83237491    -0.05610
H1355       H  0.63707301  0.18780169  0.91731179     0.07760
C1356       C  0.78679620  0.14863696  0.91428038    -0.05960
Co1357     Co  0.69342904  0.30347503  0.87032555     0.74180
N1358       N  0.66604519  0.23228978  0.89684328    -0.25140
Co1359     Co  0.69848043  0.19926583  0.87328389     0.74070
C1360       C  0.75139422  0.13097621  0.92491146     0.43480
N1361       N  0.83238916  0.23804800  0.89621101     0.01880
N1362       N  0.73238934  0.17022861  0.89813155     0.01990
N1363       N  0.64055952  0.28064233  0.83055324    -0.45990
H1364       H  0.68012606  0.36873243  0.91340490     0.07740
N1365       N  0.66369124  0.27199941  0.89594962     0.02270
N1366       N  0.73178426  0.16885834  0.84907111     0.02010
C1367       C  0.74906208  0.13421873  0.82020264     0.43620
N1368       N  0.83054052  0.27769313  0.89487359    -0.24600
C1369       C  0.71013691  0.35075998  0.82577589    -0.05520
N1370       N  0.77935530  0.36589449  0.90768146    -0.45700
N1371       N  0.71721043  0.14823501  0.83205560    -0.45930
C1372       C  0.74600738  0.36292833  0.81331272     0.43390
N1373       N  0.66379988  0.26786016  0.84717194     0.02260
N1374       N  0.83018551  0.27325797  0.84640767    -0.24620
N1375       N  0.72497239  0.33877290  0.89336824    -0.25110
N1376       N  0.83174842  0.23368689  0.84735215     0.01900
H1377       H  0.85859845  0.31679569  0.82503970     0.07790
H1378       H  0.81671475  0.14233493  0.82819599     0.07820
N1379       N  0.66564984  0.22831103  0.84852597    -0.25160
N1380       N  0.77206697  0.17199080  0.89786206    -0.24770
N1381       N  0.76386091  0.33293232  0.84384301     0.02260
C1382       C  0.62338015  0.25529423  0.92252894     0.43660
C1383       C  0.85386730  0.29302472  0.91090434    -0.06030
N1384       N  0.77144681  0.16950097  0.84919133    -0.24770
H1385       H  0.81845943  0.14351155  0.91760559     0.07810
N1386       N  0.63830259  0.28700762  0.91102929    -0.46000
H1387       H  0.85900653  0.32456469  0.91328959     0.07790
C1388       C  0.86880637  0.24884098  0.81919263     0.43490
C1389       C  0.71151725  0.36402474  0.90931732    -0.05520
Co1390     Co  0.79785299  0.30679548  0.86956774     0.73820
N1391       N  0.85616014  0.22514921  0.91261335    -0.45710
C1392       C  0.62660090  0.24740763  0.82034563     0.43760
N1393       N  0.77802954  0.35173205  0.82595612    -0.45700
Co1394     Co  0.80258945  0.20268017  0.87279100     0.73890
C1395       C  0.78523815  0.14768413  0.83194024    -0.06030
C1396       C  0.64201804  0.21904700  0.91320973    -0.05590
N1397       N  0.72414700  0.33204573  0.84422840    -0.25120
N1398       N  0.71874158  0.14584067  0.91396453    -0.45880
H1399       H  0.63756269  0.18094718  0.82978838     0.07770
C1400       C  0.85303532  0.28572812  0.82934174    -0.06010
Cl1401     Cl  0.74804671  0.25315485  0.87186572    -0.49010
C1402       C  0.87086271  0.25820272  0.92275593     0.43520
H1403       H  0.67872414  0.35545730  0.82158335     0.07730
N1404       N  0.85460218  0.21780794  0.83139700    -0.45720
C1405       C  0.74760319  0.36531764  0.18676559     0.43210
N1406       N  0.76520419  0.33236131  0.15755757     0.02260
C1407       C  0.64461961  0.21806357  0.08898545    -0.05610
H1408       H  0.63935970  0.18454203  0.17396743     0.07760
C1409       C  0.78067441  0.14881451  0.17457660    -0.05960
Co1410     Co  0.69555277  0.30356634  0.13111225     0.74180
N1411       N  0.66522116  0.23059206  0.15398685    -0.25140
Co1412     Co  0.69804514  0.19910664  0.13001248     0.74070
C1413       C  0.74336821  0.13664050  0.18541012     0.43480
N1414       N  0.83005055  0.23165820  0.15808655     0.01880
N1415       N  0.72912930  0.16884904  0.15527949     0.01990
N1416       N  0.64317179  0.28615393  0.08928856    -0.45990
H1417       H  0.68022473  0.36002839  0.17806348     0.07740
N1418       N  0.66472828  0.27012618  0.15499972     0.02270
N1419       N  0.73293278  0.16808525  0.10612372     0.02010
C1420       C  0.75312956  0.12804427  0.08004427     0.43620
N1421       N  0.82873596  0.27124175  0.15848510    -0.24600
C1422       C  0.71670866  0.36059693  0.09134671    -0.05520
N1423       N  0.77950662  0.35111786  0.17521204    -0.45700
N1424       N  0.71991712  0.14409671  0.08996315    -0.45930
C1425       C  0.75369678  0.37628535  0.08145495     0.43390
N1426       N  0.66644818  0.27143745  0.10552476     0.02260
N1427       N  0.83369170  0.27329861  0.10972073    -0.24620
N1428       N  0.72556619  0.33313008  0.15666631    -0.25110
N1429       N  0.83472378  0.23362452  0.10874648     0.01900
H1430       H  0.86346777  0.31976349  0.09112092     0.07790
H1431       H  0.81974095  0.13720025  0.08950321     0.07820
N1432       N  0.66776374  0.23169627  0.10552297    -0.25160
N1433       N  0.76881413  0.16915188  0.15625139    -0.24770
N1434       N  0.76891147  0.33652363  0.10865129     0.02260
C1435       C  0.63232796  0.25142993  0.18446810     0.43660
C1436       C  0.84777255  0.28390100  0.17689776    -0.06030
N1437       N  0.77266000  0.16853299  0.10743492    -0.24770
H1438       H  0.81148007  0.14356008  0.17981969     0.07810
N1439       N  0.64546413  0.28387337  0.17296129    -0.46000
H1440       H  0.85251372  0.31490959  0.18154781     0.07790
C1441       C  0.87366308  0.25302973  0.08207421     0.43490
C1442       C  0.71155166  0.35380402  0.17438338    -0.05520
Co1443     Co  0.79980411  0.30401547  0.13350688     0.73820
N1444       N  0.84972574  0.21610892  0.17541653    -0.45710
C1445       C  0.62863166  0.25409475  0.07799934     0.43760
N1446       N  0.78488202  0.36005520  0.09306497    -0.45700
Co1447     Co  0.80240305  0.19997825  0.13247575     0.73890
C1448       C  0.78804708  0.14405308  0.09177548    -0.06030
C1449       C  0.64435222  0.21613573  0.17124895    -0.05590
N1450       N  0.72911870  0.33622452  0.10790527    -0.25120
N1451       N  0.71276903  0.14896756  0.17215050    -0.45880
H1452       H  0.63847839  0.18671861  0.08578310     0.07770
C1453       C  0.85771341  0.28817013  0.09385044    -0.06010
Cl1454     Cl  0.74895220  0.25166421  0.13145246    -0.49010
C1455       C  0.86069303  0.24728931  0.18842207     0.43520
H1456       H  0.68563812  0.36694634  0.08697493     0.07730
N1457       N  0.85831386  0.22012867  0.09233557    -0.45720
C1458       C  0.62952018  0.99952959  0.67886724     0.43370
N1459       N  0.58910155  0.47916014  0.65295112     0.02260
C1460       C  0.95892505  0.10160760  0.59039025    -0.05610
H1461       H  0.93244210  0.10320134  0.67449795     0.07760
C1462       C  0.89660314  0.45563360  0.67086458    -0.05960
Co1463     Co  0.55087429  0.04900093  0.62826304     0.74180
N1464       N  0.97777081  0.07554485  0.65357004    -0.25140
Co1465     Co  0.94644187  0.04310201  0.62967157     0.74070
C1466       C  0.87879718  0.99151893  0.68125791     0.43480
N1467       N  0.98803040  0.41157939  0.65391260     0.01880
N1468       N  0.91800180  0.00946079  0.65445224     0.01990
N1469       N  0.52659537  0.10650011  0.58924574    -0.45990
H1470       H  0.61093139  0.06585700  0.67189994     0.07740
N1471       N  0.51744327  0.07756452  0.65315603     0.02270
N1472       N  0.91610353  0.00921780  0.60565288     0.02010
C1473       C  0.87382214  0.99003882  0.58032056     0.43620
N1474       N  0.52778533  0.41298918  0.65392471    -0.24600
C1475       C  0.60847610  0.03253487  0.58791861    -0.05520
N1476       N  0.61521467  0.46644853  0.66837573    -0.45700
N1477       N  0.88975718  0.02249507  0.59065373    -0.45930
C1478       C  0.62996634  0.99721120  0.57884979     0.43390
N1479       N  0.51509566  0.07930568  0.60424370     0.02260
N1480       N  0.52717255  0.41223009  0.60489843    -0.24620
N1481       N  0.58539907  0.01869218  0.65247140    -0.25110
N1482       N  0.98740320  0.41073568  0.60508140     0.01900
H1483       H  0.57228736  0.38428103  0.58382180     0.07790
H1484       H  0.89020238  0.42309660  0.58791941     0.07820
N1485       N  0.97557124  0.07636599  0.60522427    -0.25160
N1486       N  0.92027057  0.46984066  0.65441136    -0.24770
N1487       N  0.58806464  0.47850578  0.60439902     0.02260
C1488       C  0.99998855  0.11412702  0.68111995     0.43660
C1489       C  0.54145063  0.39054652  0.67110960    -0.06030
N1490       N  0.91899740  0.46972180  0.60587390    -0.24770
H1491       H  0.89115992  0.42422539  0.67439093     0.07810
N1492       N  0.53196215  0.10035488  0.66931352    -0.46000
H1493       H  0.57274077  0.38473964  0.67505364     0.07790
C1494       C  0.00475020  0.37358443  0.57720552     0.43490
C1495       C  0.60875409  0.03410434  0.66846821    -0.05520
Co1496     Co  0.55865750  0.44487172  0.62906941     0.73820
N1497       N  0.97333304  0.38922372  0.67022062    -0.45710
C1498       C  0.99271458  0.12241632  0.57971636     0.43760
N1499       N  0.61514356  0.46490529  0.58982922    -0.45700
Co1500     Co  0.95348048  0.43979297  0.62975305     0.73890
C1501       C  0.89403771  0.45481528  0.59047476    -0.06030
C1502       C  0.96389268  0.09802127  0.67053901    -0.05590
N1503       N  0.58411746  0.01807770  0.60385010    -0.25120
N1504       N  0.89348015  0.02362785  0.67013486    -0.45880
H1505       H  0.92687232  0.10596641  0.58898852     0.07770
C1506       C  0.54092405  0.38957569  0.58786483    -0.06010
Cl1507     Cl  0.00242988  0.99424439  0.62907938    -0.49010
C1508       C  0.00509140  0.37506244  0.68187420     0.43520
H1509       H  0.61188149  0.06411571  0.58416520     0.07730
N1510       N  0.97286467  0.38800665  0.58887544    -0.45720
C1511       C  0.99581128  0.38534536  0.31464090     0.43370
N1512       N  0.51261772  0.41518434  0.34522437     0.02260
C1513       C  0.88603839  0.04453592  0.40468364    -0.05610
H1514       H  0.89624069  0.07336429  0.32066129     0.07760
C1515       C  0.54479092  0.09781093  0.32920521    -0.05960
Co1516     Co  0.94085141  0.45252949  0.36771574     0.74180
N1517       N  0.91933055  0.02682980  0.34175610    -0.25140
Co1518     Co  0.94902273  0.05626838  0.36702126     0.74070
C1519       C  0.01201677  0.11482054  0.31603653     0.43480
N1520       N  0.58300859  0.01139531  0.34800412     0.01880
N1521       N  0.98735155  0.08290703  0.34394527     0.01990
N1522       N  0.88253302  0.47662396  0.40617426    -0.45990
H1523       H  0.92900243  0.39962325  0.32031238     0.07740
N1524       N  0.91612491  0.48749612  0.34197989     0.02270
N1525       N  0.97961922  0.08463776  0.39258239     0.02010
C1526       C  0.99373712  0.12253966  0.42026462     0.43620
N1527       N  0.57989684  0.47189945  0.34760572    -0.24600
C1528       C  0.95163857  0.39304209  0.40836065    -0.05520
N1529       N  0.52728725  0.39384427  0.32821754    -0.45700
N1530       N  0.96321913  0.10914857  0.40759778    -0.45930
C1531       C  0.98578232  0.37369817  0.42003831     0.43390
N1532       N  0.90886856  0.48843304  0.39084541     0.02260
N1533       N  0.57780854  0.47169955  0.39659340    -0.24620
N1534       N  0.97316929  0.41969883  0.34407464    -0.25110
N1535       N  0.57979185  0.01138429  0.39682794     0.01900
H1536       H  0.60862813  0.42552958  0.41584000     0.07790
H1537       H  0.56164251  0.10849533  0.41676406     0.07820
N1538       N  0.91156756  0.02802290  0.38985022    -0.25160
N1539       N  0.52666291  0.07882284  0.34608822    -0.24770
N1540       N  0.50786143  0.41394532  0.39454372     0.02260
C1541       C  0.88378187  0.00637951  0.31223740     0.43660
C1542       C  0.60000650  0.45768594  0.32972394    -0.06030
N1543       N  0.51913321  0.08073363  0.39463670    -0.24770
H1544       H  0.57694390  0.09918769  0.32648386     0.07810
N1545       N  0.89518571  0.47426681  0.32479581    -0.46000
H1546       H  0.60285533  0.42646315  0.32486485     0.07790
C1547       C  0.62135088  0.99265202  0.42275038     0.43490
C1548       C  0.95995912  0.40151863  0.32553268    -0.05520
Co1549     Co  0.54513727  0.44227332  0.37120434     0.73820
N1550       N  0.60432915  0.02544541  0.33105933    -0.45710
C1551       C  0.86637579  0.01055388  0.41522894     0.43760
N1552       N  0.51951458  0.38826730  0.41037321    -0.45700
Co1553     Co  0.55276305  0.04611553  0.37169193     0.73890
C1554       C  0.53088846  0.10387973  0.41170956    -0.06030
C1555       C  0.89963510  0.04166120  0.32395007    -0.05590
N1556       N  0.96822044  0.41748874  0.39305828    -0.25120
N1557       N  0.97712449  0.10457572  0.32614762    -0.45880
H1558       H  0.88169518  0.07639452  0.40762335     0.07770
C1559       C  0.60275287  0.45707796  0.41257611    -0.06010
Cl1560     Cl  0.99691320  0.99922226  0.36978550    -0.49010
C1561       C  0.61490825  0.99348747  0.31849462     0.43520
H1562       H  0.91968704  0.38790245  0.41008489     0.07730
N1563       N  0.60543762  0.02488417  0.41194601    -0.45720
C1564       C  0.49192752  0.26726373  0.49910134     0.01480
C1565       C  0.49169191  0.22535899  0.49981000     0.01480
C1566       C  0.77534651  0.50476166  0.49931706     0.01480
C1567       C  0.73338806  0.50167557  0.49951714     0.01480
C1568       C  0.50129805  0.24752885  0.25106223    -0.01570
C1569       C  0.99358904  0.28424173  0.26820569    -0.04420
C1570       C  0.49173495  0.27949390  0.29238663    -0.01540
C1571       C  0.49808485  0.31228431  0.30671435     0.03450
C1572       C  0.99531298  0.35153929  0.29843947    -0.04420
C1573       C  0.98594764  0.35761234  0.27562812    -0.01530
C1574       C  0.98565121  0.32454418  0.26047221     0.03450
C1575       C  0.47609118  0.24406398  0.30366133     0.38100
C1576       C  0.97853517  0.39825519  0.26757247     0.38090
C1577       C  0.97903923  0.33312510  0.23690033     0.36510
C1578       C  0.50402233  0.30553634  0.33063678     0.36510
N1579       N  0.97377071  0.34081950  0.21819483    -0.38310
N1580       N  0.50871388  0.30020330  0.34963587    -0.38310
N1581       N  0.97259677  0.43070153  0.26118779    -0.37750
N1582       N  0.46281886  0.21718194  0.31348024    -0.37760
C1583       C  0.01484902  0.14315759  0.29699065    -0.04420
C1584       C  0.54281237  0.17447426  0.29710469    -0.01540
C1585       C  0.54068517  0.20487903  0.28069405     0.03450
C1586       C  0.00674520  0.20768360  0.26550631    -0.04420
C1587       C  0.98148720  0.17272005  0.26425785    -0.01530
C1588       C  0.98767798  0.14011171  0.27917386     0.03450
C1589       C  0.57182500  0.17793772  0.31524354     0.38100
C1590       C  0.95184395  0.16652674  0.24680578     0.38090
C1591       C  0.96914227  0.10140601  0.27510774     0.36510
C1592       C  0.57163434  0.23548145  0.28177924     0.36510
N1593       N  0.95593652  0.06995408  0.27165121    -0.38310
N1594       N  0.59718217  0.25865297  0.28356943    -0.38310
N1595       N  0.92839502  0.15947124  0.23304526    -0.37750
N1596       N  0.59491128  0.18131025  0.32962902    -0.37760
C1597       C  0.48963136  0.19812767  0.47921734    -0.04420
C1598       C  0.01263275  0.16139268  0.47842015    -0.01540
C1599       C  0.00803405  0.13448936  0.46052028     0.03450
C1600       C  0.98889277  0.14715184  0.44082833    -0.04420
C1601       C  0.46503949  0.18251842  0.44130213    -0.01530
C1602       C  0.46225815  0.20547146  0.46122174     0.03450
C1603       C  0.04209210  0.15004041  0.49525630     0.38100
C1604       C  0.44287893  0.19505467  0.42150598     0.38090
C1605       C  0.42808608  0.23257748  0.46379263     0.36510
C1606       C  0.01873811  0.09225033  0.46333769     0.36510
N1607       N  0.39969484  0.25293204  0.46547727    -0.38310
N1608       N  0.02587913  0.05833145  0.46575553    -0.38310
N1609       N  0.42539123  0.20525076  0.40566800    -0.37750
N1610       N  0.06616490  0.13893712  0.50794688    -0.37760
C1611       C  0.48878362  0.29176558  0.47754797    -0.04420
C1612       C  0.95833460  0.32207601  0.47543355    -0.01540
C1613       C  0.95608407  0.34696310  0.45624288     0.03450
C1614       C  0.98547268  0.34403004  0.43915495    -0.04420
C1615       C  0.51560654  0.31349109  0.44096022    -0.01530
C1616       C  0.51727991  0.28762459  0.45992351     0.03450
C1617       C  0.92792893  0.32798622  0.49267080     0.38100
C1618       C  0.54459682  0.30775241  0.42299683     0.38090
C1619       C  0.55002402  0.25845702  0.46175823     0.36510
C1620       C  0.92284341  0.37556093  0.45448814     0.36510
N1621       N  0.57631693  0.23536772  0.46313027    -0.38310
N1622       N  0.89524908  0.39710983  0.45349462    -0.38310
N1623       N  0.56770226  0.30299244  0.40867146    -0.37750
N1624       N  0.90270391  0.33467543  0.50559681    -0.37760
C1625       C  0.65187746  0.99531304  0.44137192    -0.04420
C1626       C  0.68430425  0.46744617  0.44361711    -0.01540
C1627       C  0.71209851  0.47044710  0.46172181     0.03450
C1628       C  0.70647717  0.49987438  0.47877304    -0.04420
C1629       C  0.67299723  0.02682720  0.47651194    -0.01530
C1630       C  0.64893837  0.02681368  0.45708519     0.03450
C1631       C  0.69097257  0.43731535  0.42644749     0.38100
C1632       C  0.66202653  0.05581919  0.49366235     0.38090
C1633       C  0.62318030  0.06153725  0.45294221     0.36510
C1634       C  0.74574914  0.44231866  0.46280051     0.36510
N1635       N  0.60502131  0.09098370  0.45008667    -0.38310
N1636       N  0.77269025  0.41987175  0.46302026    -0.38310
N1637       N  0.65009510  0.07945483  0.50633581    -0.37750
N1638       N  0.69661788  0.41337952  0.41270630    -0.37760
C1639       C  0.84434548  0.01207251  0.43681317    -0.04420
C1640       C  0.86318248  0.49693175  0.45608067    -0.01540
C1641       C  0.84164305  0.49421090  0.47640864     0.03450
C1642       C  0.80144058  0.51072911  0.47829529    -0.04420
C1643       C  0.78767916  0.03473083  0.46000150    -0.01530
C1644       C  0.80702495  0.03232171  0.43889573     0.03450
C1645       C  0.90604425  0.48692493  0.45525759     0.38100
C1646       C  0.75808440  0.06649712  0.46348357     0.38090
C1647       C  0.78877296  0.05122965  0.41940962     0.36510
C1648       C  0.86349697  0.47600062  0.49491083     0.36510
N1649       N  0.77407411  0.06603013  0.40380692    -0.38310
N1650       N  0.88342243  0.46191033  0.50885873    -0.38310
N1651       N  0.73544062  0.09289292  0.46593475    -0.37750
N1652       N  0.94023856  0.47965620  0.45455820    -0.37760
C1653       C  0.71126740  0.49887903  0.52175048    -0.04420
C1654       C  0.69103787  0.46320670  0.52779820    -0.01540
C1655       C  0.66901439  0.46102508  0.54804389     0.03450
C1656       C  0.66239111  0.99593345  0.56116949    -0.04420
C1657       C  0.68559107  0.03035858  0.55629765    -0.01530
C1658       C  0.70918145  0.03214829  0.53660626     0.03450
C1659       C  0.69110080  0.42888725  0.51284893     0.38100
C1660       C  0.68728323  0.06357195  0.57200207     0.38090
C1661       C  0.72594907  0.07067852  0.53033915     0.36510
C1662       C  0.65543039  0.42209070  0.55576850     0.36510
N1663       N  0.73648784  0.10267269  0.52562277    -0.38310
N1664       N  0.64591081  0.39061029  0.56203308    -0.38310
N1665       N  0.68931491  0.09019501  0.58440798    -0.37750
N1666       N  0.69018022  0.40124739  0.50110810    -0.37760
C1667       C  0.79719395  0.50066105  0.52136914    -0.04420
C1668       C  0.81498662  0.03434587  0.53141603    -0.01540
C1669       C  0.83241742  0.03085224  0.55277087     0.03450
C1670       C  0.84343264  0.99258805  0.56150805    -0.04420
C1671       C  0.82706327  0.45810986  0.55090942    -0.01530
C1672       C  0.80249754  0.46247961  0.53161096     0.03450
C1673       C  0.81843605  0.07196381  0.51925818     0.38100
C1674       C  0.83517103  0.41769001  0.55900858     0.38090
C1675       C  0.78889211  0.42663316  0.52020181     0.36510
C1676       C  0.83355320  0.06629030  0.56675964     0.36510
N1677       N  0.77971434  0.39713334  0.51142920    -0.38310
N1678       N  0.83238704  0.09364554  0.57869040    -0.38310
N1679       N  0.84078147  0.38467258  0.56454526    -0.37750
N1680       N  0.82199319  0.10184918  0.50948734    -0.37760
C1681       C  0.99151704  0.15407103  0.56140573    -0.04420
C1682       C  0.52631405  0.17620179  0.55528520    -0.01540
C1683       C  0.52552530  0.20237729  0.53640167     0.03450
C1684       C  0.49155528  0.20336482  0.52200329    -0.04420
C1685       C  0.95759012  0.18059481  0.52792788    -0.01530
C1686       C  0.95591017  0.16123457  0.54881723     0.03450
C1687       C  0.56295394  0.17295428  0.56842399     0.38100
C1688       C  0.92322619  0.17770679  0.51293694     0.38090
C1689       C  0.91632796  0.15563347  0.55824488     0.36510
C1690       C  0.56157905  0.22409045  0.53026979     0.36510
N1691       N  0.88391198  0.15441217  0.56530369    -0.38310
N1692       N  0.59078397  0.24069512  0.52540798    -0.38310
N1693       N  0.89546281  0.17475928  0.50135693    -0.37750
N1694       N  0.59237597  0.17048868  0.57877335    -0.37760
C1695       C  0.00198935  0.34548965  0.55776160    -0.04420
C1696       C  0.52831003  0.34926164  0.53933359    -0.01540
C1697       C  0.52733347  0.32133716  0.52157535     0.03450
C1698       C  0.49625809  0.29234666  0.52026617    -0.04420
C1699       C  0.96747585  0.29122432  0.53794787    -0.01530
C1700       C  0.97195310  0.31572078  0.55709692     0.03450
C1701       C  0.55327735  0.38457145  0.53717286     0.38100
C1702       C  0.93029803  0.26919362  0.53573010     0.38090
C1703       C  0.94475130  0.31058191  0.57595187     0.36510
C1704       C  0.55868816  0.32332049  0.50465479     0.36510
N1705       N  0.92302760  0.30637895  0.59094476    -0.38310
N1706       N  0.58446907  0.32577278  0.49165690    -0.38310
N1707       N  0.89922649  0.25388166  0.53460074    -0.37750
N1708       N  0.57206430  0.41337430  0.53481860    -0.37760
C1709       C  0.54299256  0.24994650  0.23758885    -0.04420
C1710       C  0.56543288  0.28607661  0.23356827    -0.01540
C1711       C  0.59221290  0.28807429  0.21511549     0.03450
C1712       C  0.60854839  0.25225963  0.20587396    -0.04420
C1713       C  0.59765667  0.21598470  0.21620021    -0.01530
C1714       C  0.56098219  0.21412127  0.22782605     0.03450
C1715       C  0.56870828  0.31854219  0.24950659     0.38100
C1716       C  0.62290615  0.18009323  0.21485963     0.38090
C1717       C  0.54141816  0.17540342  0.22647701     0.36510
C1718       C  0.60050109  0.32712511  0.20539709     0.36510
N1719       N  0.52834771  0.14352598  0.22422426    -0.38310
N1720       N  0.60612658  0.35858604  0.19772663    -0.38310
N1721       N  0.64244522  0.15102279  0.21427052    -0.37750
N1722       N  0.57407538  0.34469615  0.26189302    -0.37760
C1723       C  0.89502408  0.24523050  0.20410919    -0.04420
C1724       C  0.88935455  0.25005624  0.22711827    -0.01540
C1725       C  0.92277495  0.24995643  0.24195615     0.03450
C1726       C  0.96391706  0.24708043  0.23384812    -0.04420
C1727       C  0.96780141  0.24578939  0.20952081    -0.01530
C1728       C  0.93385113  0.24199220  0.19543781     0.03450
C1729       C  0.84836044  0.25440430  0.23555939     0.38100
C1730       C  0.00431920  0.25230444  0.19687820     0.38090
C1731       C  0.93869240  0.23705291  0.17122363     0.36510
C1732       C  0.91243162  0.25243805  0.26546294     0.36510
N1733       N  0.94239621  0.23328449  0.15204990    -0.38310
N1734       N  0.89967826  0.25507176  0.28346183    -0.38310
N1735       N  0.53022922  0.25743088  0.18423845    -0.37750
N1736       N  0.81573161  0.25788659  0.24222610    -0.37760
C1737       C  0.75362483  0.09978900  0.06055107    -0.04420
C1738       C  0.72627940  0.06755883  0.05912068    -0.01540
C1739       C  0.72714037  0.04109208  0.04049456     0.03450
C1740       C  0.75674275  0.04528496  0.02343571    -0.04420
C1741       C  0.78476324  0.07726029  0.02543011    -0.01530
C1742       C  0.78234216  0.10476206  0.04334929     0.03450
C1743       C  0.69718922  0.06133060  0.07691542     0.38100
C1744       C  0.81711590  0.08254489  0.00933950     0.38090
C1745       C  0.80842867  0.13965250  0.04326053     0.36510
C1746       C  0.69550411  0.01164057  0.03830815     0.36510
N1747       N  0.82916700  0.16742075  0.04299817    -0.38310
N1748       N  0.66983779  0.98854133  0.03673277    -0.38310
N1749       N  0.84375300  0.08851955  0.99728659    -0.37750
N1750       N  0.67401013  0.05624721  0.09112093    -0.37760
C1751       C  0.75739722  0.45145606  0.02162781    -0.04420
C1752       C  0.73186454  0.41716063  0.02313840    -0.01540
C1753       C  0.73329497  0.39139301  0.04193382     0.03450
C1754       C  0.75710737  0.40093174  0.06061130    -0.04420
C1755       C  0.78373093  0.43365075  0.05909466    -0.01530
C1756       C  0.78571896  0.45705081  0.03921632     0.03450
C1757       C  0.70317042  0.40717258  0.00579774     0.38100
C1758       C  0.80855337  0.44394494  0.07817970     0.38090
C1759       C  0.81938892  0.48393488  0.03634694     0.36510
C1760       C  0.71130435  0.35374931  0.04154845     0.36510
N1761       N  0.84711899  0.50443206  0.03433767    -0.38310
N1762       N  0.69412794  0.32364531  0.04111270    -0.38310
N1763       N  0.82805864  0.45245045  0.09348199    -0.37750
N1764       N  0.67982970  0.39699147  0.99264732    -0.37760
C1765       C  0.75257094  0.04622685  0.98066690    -0.04420
C1766       C  0.78309970  0.04489674  0.96397967    -0.01540
C1767       C  0.78085170  0.07029677  0.94500236     0.03450
C1768       C  0.75044125  0.10037669  0.94333783    -0.04420
C1769       C  0.72000627  0.10200328  0.95989562    -0.01530
C1770       C  0.72071579  0.07491604  0.97818859     0.03450
C1771       C  0.81973367  0.02141169  0.96726836     0.38100
C1772       C  0.68844362  0.13261313  0.95878000     0.38090
C1773       C  0.68848865  0.07761439  0.99460603     0.36510
C1774       C  0.80976246  0.06450366  0.92697828     0.36510
N1775       N  0.66219861  0.08064006  0.00728219    -0.38310
N1776       N  0.83282470  0.05948067  0.91265508    -0.38310
N1777       N  0.66311231  0.15684642  0.95819421    -0.37750
N1778       N  0.85031391  0.00473797  0.96942306    -0.37760
C1779       C  0.75468206  0.45769212  0.97859414    -0.04420
C1780       C  0.78727660  0.43256882  0.97212592    -0.01540
C1781       C  0.78688990  0.41249610  0.95133666     0.03450
C1782       C  0.75129411  0.41156040  0.93816200    -0.04420
C1783       C  0.71870186  0.43724401  0.94447870    -0.01530
C1784       C  0.72050467  0.46026363  0.96440968     0.03450
C1785       C  0.82170636  0.42695230  0.98689255     0.38100
C1786       C  0.68348729  0.44160950  0.93027554     0.38090
C1787       C  0.68472377  0.48205905  0.97175843     0.36510
C1788       C  0.82456319  0.39533179  0.94339265     0.36510
N1789       N  0.65537458  0.49805966  0.97757148    -0.38310
N1790       N  0.85596738  0.38392496  0.93765366    -0.38310
N1791       N  0.65510529  0.44569785  0.91919393    -0.37750
N1792       N  0.84941532  0.42209149  0.99839348    -0.37760
C1793       C  0.00035091  0.20610078  0.73351765    -0.04420
C1794       C  0.53064861  0.20467789  0.71607306    -0.01540
C1795       C  0.52989686  0.17543254  0.69894767     0.03450
C1796       C  0.00188846  0.14407517  0.69958874    -0.04420
C1797       C  0.97413972  0.14252387  0.71729809    -0.01530
C1798       C  0.97033784  0.17480601  0.73252026     0.03450
C1799       C  0.56444207  0.23211397  0.71553299     0.38100
C1800       C  0.94858255  0.10745310  0.71981896     0.38090
C1801       C  0.93180299  0.17643541  0.74400506     0.36510
C1802       C  0.55798039  0.17839974  0.68028638     0.36510
N1803       N  0.90014142  0.17658631  0.75218075    -0.38310
N1804       N  0.58034138  0.18098036  0.66546267    -0.38310
N1805       N  0.92829945  0.07959101  0.72191039    -0.37750
N1806       N  0.59260528  0.25217885  0.71411658    -0.37760
C1807       C  0.99976337  0.28157016  0.73327903    -0.04420
C1808       C  0.97274932  0.28225212  0.71423680    -0.01540
C1809       C  0.97640724  0.31114809  0.69702359     0.03450
C1810       C  0.00221338  0.34394146  0.69959031    -0.04420
C1811       C  0.52557315  0.34673332  0.71895446    -0.01530
C1812       C  0.52878567  0.31388876  0.73385583     0.03450
C1813       C  0.93895429  0.25510550  0.71217219     0.38100
C1814       C  0.54548686  0.38434188  0.72406080     0.38090
C1815       C  0.56586920  0.31335656  0.74672170     0.36510
C1816       C  0.95313373  0.30690492  0.67652103     0.36510
N1817       N  0.59640596  0.31434725  0.75609020    -0.38310
N1818       N  0.93464579  0.30338336  0.66021944    -0.38310
N1819       N  0.56027047  0.41463326  0.72854250    -0.37750
N1820       N  0.91079354  0.23553419  0.70936453    -0.37760
C1821       C  0.53532128  0.24462964  0.76766710    -0.04420
C1822       C  0.56778332  0.21516339  0.76891450    -0.01540
C1823       C  0.59920757  0.21913631  0.78470365     0.03450
C1824       C  0.59618185  0.24722568  0.80215116    -0.04420
C1825       C  0.56326072  0.27400626  0.80276105    -0.01530
C1826       C  0.53454395  0.27439325  0.78537594     0.03450
C1827       C  0.56899062  0.17773074  0.75644458     0.38100
C1828       C  0.55840739  0.30138886  0.82160648     0.38090
C1829       C  0.50623387  0.30814775  0.78557742     0.36510
C1830       C  0.63524579  0.19387926  0.78288674     0.36510
N1831       N  0.98556769  0.33638043  0.78676625    -0.38310
N1832       N  0.66393674  0.17391552  0.78131621    -0.38310
N1833       N  0.55436839  0.32312838  0.83658742    -0.37750
N1834       N  0.57136503  0.14695879  0.74742626    -0.37760
C1835       C  0.96031970  0.24370426  0.76628828    -0.04420
C1836       C  0.92825920  0.27366498  0.76637458    -0.01540
C1837       C  0.89676249  0.27222520  0.78235406     0.03450
C1838       C  0.89852599  0.24537702  0.80054287    -0.04420
C1839       C  0.92965363  0.21645560  0.80137034    -0.01530
C1840       C  0.95889642  0.21429909  0.78420952     0.03450
C1841       C  0.92770365  0.30954295  0.75248618     0.38100
C1842       C  0.93250710  0.18895912  0.82034218     0.38090
C1843       C  0.98602958  0.17965342  0.78506893     0.36510
C1844       C  0.86227779  0.29942085  0.78012771     0.36510
N1845       N  0.00556379  0.15071684  0.78677021    -0.38310
N1846       N  0.83516221  0.32138142  0.77826690    -0.38310
N1847       N  0.93499549  0.16704769  0.83540101    -0.37750
N1848       N  0.92560894  0.33929574  0.74238525    -0.37760
C1849       C  0.79014073  0.00462452  0.73530355    -0.04420
C1850       C  0.82539399  0.47897180  0.73773089    -0.01540
C1851       C  0.85294024  0.47321151  0.71972160     0.03450
C1852       C  0.84785625  0.99425461  0.69941576    -0.04420
C1853       C  0.81633507  0.02269271  0.69774905    -0.01530
C1854       C  0.79156969  0.03122879  0.71635396     0.03450
C1855       C  0.83802635  0.46311436  0.75934178     0.38100
C1856       C  0.81011312  0.04509947  0.67704973     0.38090
C1857       C  0.77956840  0.07310790  0.71809168     0.36510
C1858       C  0.88814088  0.44727165  0.72261113     0.36510
N1859       N  0.77344112  0.10747312  0.71865639    -0.38310
N1860       N  0.91634094  0.42682710  0.72486999    -0.38310
N1861       N  0.80501217  0.06298115  0.66060541    -0.37750
N1862       N  0.84949818  0.45009430  0.77621573    -0.37760
C1863       C  0.71195775  0.00413511  0.73674618    -0.04420
C1864       C  0.69953138  0.03899799  0.72436913    -0.01540
C1865       C  0.67931320  0.03573279  0.70376651     0.03450
C1866       C  0.65945214  0.99993943  0.69796218    -0.04420
C1867       C  0.66447766  0.46659021  0.71251216    -0.01530
C1868       C  0.68685680  0.46997325  0.73270137     0.03450
C1869       C  0.69711517  0.07837197  0.73476686     0.38100
C1870       C  0.64786585  0.42781492  0.70678368     0.38090
C1871       C  0.67471546  0.44312659  0.75061603     0.36510
C1872       C  0.68199622  0.06925340  0.68825000     0.36510
N1873       N  0.66338307  0.42162751  0.76450537    -0.38310
N1874       N  0.68512212  0.09608717  0.67598581    -0.38310
N1875       N  0.63600964  0.39625000  0.70228849    -0.37750
N1876       N  0.69396572  0.11006781  0.74264498    -0.37760
C1877       C  0.75004811  0.04331089  0.76755219    -0.04420
C1878       C  0.78272670  0.07107107  0.77048416    -0.01540
C1879       C  0.77881053  0.10429950  0.78506884     0.03450
C1880       C  0.74664258  0.10687397  0.80038638    -0.04420
C1881       C  0.71383935  0.08085148  0.79772488    -0.01530
C1882       C  0.71506497  0.05000116  0.78148210     0.03450
C1883       C  0.82333537  0.06360514  0.76229449     0.38100
C1884       C  0.67843993  0.08494468  0.81200418     0.38090
C1885       C  0.67985822  0.02461006  0.78040866     0.36510
C1886       C  0.80859579  0.13598683  0.78430964     0.36510
N1887       N  0.65011876  0.00679796  0.78073131    -0.38310
N1888       N  0.83215479  0.16135835  0.78369749    -0.38310
N1889       N  0.65000698  0.08804100  0.82316009    -0.37750
N1890       N  0.85638946  0.05919884  0.75645440    -0.37760
C1891       C  0.74795784  0.39741399  0.79756400    -0.04420
C1892       C  0.75140442  0.39183372  0.77426999    -0.01540
C1893       C  0.75581751  0.42543899  0.75970762     0.03450
C1894       C  0.75524158  0.46589640  0.76833412    -0.04420
C1895       C  0.76011467  0.46880162  0.79233803    -0.01530
C1896       C  0.75175158  0.43605115  0.80644631     0.03450
C1897       C  0.74829117  0.35156463  0.76517351     0.38100
C1898       C  0.78257365  0.50063422  0.80308537     0.38090
C1899       C  0.74937059  0.44189830  0.83060735     0.36510
C1900       C  0.76003203  0.41772231  0.73584590     0.36510
N1901       N  0.74736021  0.44643690  0.84980196    -0.38310
N1902       N  0.76334832  0.41130886  0.71687016    -0.38310
N1903       N  0.80109186  0.52429040  0.81271786    -0.37750
N1904       N  0.74555166  0.31947685  0.75788144    -0.37760
C1905       C  0.54400860  0.25483877  0.02225037    -0.04420
C1906       C  0.54157731  0.28494662  0.03907664    -0.01540
C1907       C  0.56863236  0.28441134  0.05743106     0.03450
C1908       C  0.60014443  0.25543053  0.05860124    -0.04420
C1909       C  0.60386705  0.22664272  0.04131759    -0.01530
C1910       C  0.57539494  0.22541021  0.02383672     0.03450
C1911       C  0.51396172  0.31883452  0.03674367     0.38100
C1912       C  0.63829984  0.19914498  0.04065276     0.38090
C1913       C  0.57895437  0.19295442  0.00767654     0.36510
C1914       C  0.56369892  0.31383518  0.07517383     0.36510
N1915       N  0.58305081  0.16631262  0.99539343    -0.38310
N1916       N  0.55961663  0.33730673  0.08931620    -0.38310
N1917       N  0.66563885  0.17719701  0.03988949    -0.37750
N1918       N  0.49298028  0.34676675  0.03516457    -0.37760
C1919       C  0.95217063  0.25620838  0.02356981    -0.04420
C1920       C  0.95623375  0.22488640  0.03970537    -0.01540
C1921       C  0.93118095  0.22416967  0.05894804     0.03450
C1922       C  0.90005027  0.25314909  0.06174359    -0.04420
C1923       C  0.89442189  0.28296589  0.04506839    -0.01530
C1924       C  0.92096157  0.28537443  0.02667891     0.03450
C1925       C  0.98320006  0.19100917  0.03573027     0.38100
C1926       C  0.85978524  0.31016350  0.04587439     0.38090
C1927       C  0.91555233  0.31864420  0.01110226     0.36510
C1928       C  0.93759068  0.19334593  0.07587942     0.36510
N1929       N  0.91011808  0.34576931  0.99923809    -0.38310
N1930       N  0.94276643  0.16875959  0.08937948    -0.38310
N1931       N  0.83223977  0.33187690  0.04618597    -0.37750
N1932       N  0.00364616  0.16303698  0.03285460    -0.37760
C1933       C  0.54177968  0.25834833  0.97952219    -0.04420
C1934       C  0.53819309  0.22822446  0.96283251    -0.01540
C1935       C  0.56290131  0.22892053  0.94352610     0.03450
C1936       C  0.59367714  0.25777110  0.94129417    -0.04420
C1937       C  0.59734350  0.28783995  0.95774601    -0.01530
C1938       C  0.57149964  0.28846580  0.97653017     0.03450
C1939       C  0.51232583  0.19387703  0.96629059     0.38100
C1940       C  0.62908087  0.31740008  0.95599094     0.38090
C1941       C  0.57631672  0.32058695  0.99270982     0.36510
C1942       C  0.55595257  0.20001737  0.92579203     0.36510
N1943       N  0.58131438  0.34686591  0.00505185    -0.38310
N1944       N  0.55010431  0.17699416  0.91167722    -0.38310
N1945       N  0.65440380  0.34092037  0.95467795    -0.37750
N1946       N  0.99277797  0.16559583  0.96874339    -0.37760
C1947       C  0.95069880  0.25617601  0.98067185    -0.04420
C1948       C  0.95378847  0.28691492  0.96420341    -0.01540
C1949       C  0.92936568  0.28634184  0.94480312     0.03450
C1950       C  0.89852041  0.25759522  0.94252625    -0.04420
C1951       C  0.89370360  0.22837366  0.95951053    -0.01530
C1952       C  0.92022288  0.22680564  0.97796659     0.03450
C1953       C  0.97901134  0.32158829  0.96792815     0.38100
C1954       C  0.86008597  0.20077582  0.95881770     0.38090
C1955       C  0.91564008  0.19415209  0.99394836     0.36510
C1956       C  0.93689831  0.31517914  0.92703562     0.36510
N1957       N  0.91086247  0.16747590  0.00613574    -0.38310
N1958       N  0.94327999  0.33820606  0.91292350    -0.38310
N1959       N  0.83327652  0.17882024  0.95879440    -0.37750
N1960       N  0.99789108  0.35022700  0.97059691    -0.37760
C1961       C  0.85455054  0.00407090  0.29300907    -0.04420
C1962       C  0.84473623  0.03766757  0.27929515    -0.01540
C1963       C  0.81447418  0.03508776  0.26264177     0.03450
C1964       C  0.78657897  0.00228449  0.26269694    -0.04420
C1965       C  0.79856302  0.46785148  0.27599457    -0.01530
C1966       C  0.83403329  0.46778684  0.28892907     0.03450
C1967       C  0.86385600  0.07630223  0.28229769     0.38100
C1968       C  0.77342340  0.43267379  0.27887955     0.38090
C1969       C  0.84697187  0.42987408  0.29907530     0.36510
C1970       C  0.81652420  0.06511343  0.24502340     0.36510
N1971       N  0.85576039  0.39903782  0.30682166    -0.38310
N1972       N  0.82146471  0.08912973  0.23122548    -0.38310
N1973       N  0.75604418  0.40345359  0.28271450    -0.37750
N1974       N  0.87695709  0.10826794  0.28408417    -0.37760
C1975       C  0.70901380  0.00421360  0.26845842    -0.04420
C1976       C  0.66700265  0.00751838  0.26237290    -0.01540
C1977       C  0.63626796  0.00415518  0.27881100     0.03450
C1978       C  0.64622447  0.99538929  0.30112897    -0.04420
C1979       C  0.68644593  0.49493382  0.30776918    -0.01530
C1980       C  0.71661925  0.50508668  0.29236281     0.03450
C1981       C  0.65356557  0.01434927  0.23960664     0.38100
C1982       C  0.69655838  0.48757187  0.33120338     0.38090
C1983       C  0.75074976  0.52482678  0.30260499     0.36510
C1984       C  0.59401520  0.00849384  0.27270579     0.36510
N1985       N  0.77594581  0.54132990  0.31218259    -0.38310
N1986       N  0.56036648  0.01203652  0.26789626    -0.38310
N1987       N  0.70448545  0.48170891  0.34982007    -0.37750
N1988       N  0.63963917  0.02070630  0.22216098    -0.37760
C1989       C  0.73660619  0.03817994  0.23287378    -0.04420
C1990       C  0.73134596  0.03246669  0.20898656    -0.01540
C1991       C  0.73725987  0.06430585  0.19390556     0.03450
C1992       C  0.73938351  0.10371133  0.20175502    -0.04420
C1993       C  0.73442601  0.11150658  0.22469619    -0.01530
C1994       C  0.73257978  0.07922214  0.24026446     0.03450
C1995       C  0.71290776  0.99721142  0.19910735     0.38100
C1996       C  0.73364008  0.15296226  0.23237121     0.38090
C1997       C  0.72820181  0.08975242  0.26367382     0.36510
C1998       C  0.73964361  0.05656006  0.16991198     0.36510
N1999       N  0.72392809  0.10076127  0.28191212    -0.38310
N2000       N  0.74162971  0.05048766  0.15085043    -0.38310
N2001       N  0.73305385  0.18601046  0.23844594    -0.37750
N2002       N  0.69734419  0.97045097  0.19040966    -0.37760
C2003       C  0.75044649  0.39482373  0.20527103    -0.04420
C2004       C  0.72206447  0.39506411  0.22267110    -0.01540
C2005       C  0.71899431  0.42807160  0.23759212     0.03450
C2006       C  0.74694166  0.46101307  0.23615161    -0.04420
C2007       C  0.78009714  0.45556701  0.22059032    -0.01530
C2008       C  0.78089664  0.42370695  0.20511275     0.03450
C2009       C  0.69821730  0.35923713  0.22635429     0.38100
C2010       C  0.81288216  0.48383992  0.21830273     0.38090
C2011       C  0.81253364  0.42228405  0.18812681     0.36510
C2012       C  0.68833447  0.42445154  0.25475352     0.36510
N2013       N  0.83781677  0.42143397  0.17474286    -0.38310
N2014       N  0.66394067  0.41831450  0.26818948    -0.38310
N2015       N  0.84074055  0.50352361  0.21480239    -0.37750
N2016       N  0.68030052  0.33022667  0.22981718    -0.37760
C2017       C  0.74422287  0.00184349  0.25007321    -0.01570
C2018       C  0.97617035  0.75626023  0.00186062     0.01480
C2019       C  0.51806113  0.75655675  0.00129579     0.01480
C2020       C  0.75224420  0.00446847  0.75216262    -0.01570
C2021       C  0.99889014  0.74394804  0.75012181    -0.01570
C2022       C  0.75577184  0.97896451  0.00101358     0.01480
C2023       C  0.75549603  0.52087742  0.00188315     0.01480
C2024       C  0.74780555  0.88264313  0.91878441     0.43370
N2025       N  0.76465145  0.84030637  0.89287773     0.02260
C2026       C  0.64281611  0.71264681  0.83237509    -0.05610
H2027       H  0.63707144  0.68780063  0.91731206     0.07760
C2028       C  0.78679562  0.64863713  0.91428077    -0.05960
Co2029     Co  0.69342728  0.80347405  0.87032576     0.74180
N2030       N  0.66604376  0.73228873  0.89684359    -0.25140
Co2031     Co  0.69847921  0.69926491  0.87328413     0.74070
C2032       C  0.75139391  0.63097600  0.92491192     0.43480
N2033       N  0.83238781  0.73804830  0.89621103     0.01880
N2034       N  0.73238847  0.67022799  0.89813189     0.01990
N2035       N  0.64055752  0.78064154  0.83055373    -0.45990
H2036       H  0.68012448  0.86873137  0.91340507     0.07740
N2037       N  0.66368979  0.77199837  0.89594994     0.02270
N2038       N  0.73178343  0.66885762  0.84907133     0.02010
C2039       C  0.74906215  0.63421853  0.82020285     0.43620
N2040       N  0.83053919  0.77769340  0.89487333    -0.24600
C2041       C  0.71013401  0.85075889  0.82577603    -0.05520
N2042       N  0.77935366  0.86589439  0.90768102    -0.45700
N2043       N  0.71721008  0.64823433  0.83205567    -0.45930
C2044       C  0.74600406  0.86292751  0.81331260     0.43390
N2045       N  0.66379802  0.76785916  0.84717232     0.02260
N2046       N  0.83018384  0.77325750  0.84640739    -0.24620
N2047       N  0.72497074  0.83877215  0.89336820    -0.25110
N2048       N  0.83174719  0.73368645  0.84735223     0.01900
H2049       H  0.85859630  0.81679483  0.82503895     0.07790
H2050       H  0.81671453  0.64233530  0.82819646     0.07820
N2051       N  0.66564820  0.72831002  0.84852620    -0.25160
N2052       N  0.77206608  0.67199067  0.89786239    -0.24770
N2053       N  0.76385858  0.83293157  0.84384275     0.02260
C2054       C  0.62337852  0.75529316  0.92252921     0.43660
C2055       C  0.85386595  0.79302531  0.91090398    -0.06030
N2056       N  0.77144599  0.66950056  0.84919172    -0.24770
H2057       H  0.81845891  0.64351212  0.91760596     0.07810
N2058       N  0.63830103  0.78700654  0.91102957    -0.46000
H2059       H  0.85900521  0.82456538  0.91328899     0.07790
C2060       C  0.86880498  0.74884002  0.81919255     0.43490
C2061       C  0.71151563  0.86402392  0.90931730    -0.05520
Co2062     Co  0.79785125  0.80679518  0.86956742     0.73820
N2063       N  0.85615867  0.72514985  0.91261349    -0.45710
C2064       C  0.62659885  0.74740703  0.82034602     0.43760
N2065       N  0.77802664  0.85173146  0.82595576    -0.45700
Co2066     Co  0.80258833  0.70268003  0.87279124     0.73890
C2067       C  0.78523783  0.64768406  0.83194065    -0.06030
C2068       C  0.64201651  0.71904594  0.91321001    -0.05590
N2069       N  0.72414468  0.83204477  0.84422843    -0.25120
N2070       N  0.71874105  0.64584000  0.91396496    -0.45880
H2071       H  0.63756104  0.68094639  0.82978840     0.07770
C2072       C  0.85303349  0.78572734  0.82934131    -0.06010
Cl2073     Cl  0.74804524  0.75315426  0.87186581    -0.49010
C2074       C  0.87086120  0.75820357  0.92275587     0.43520
H2075       H  0.67872111  0.85545607  0.82158375     0.07730
N2076       N  0.85460113  0.71780724  0.83139723    -0.45720
C2077       C  0.74759567  0.86531943  0.18676501     0.43210
N2078       N  0.76519828  0.83236379  0.15755696     0.02260
C2079       C  0.64461834  0.71806084  0.08898539    -0.05610
H2080       H  0.63935782  0.68454298  0.17396916     0.07760
C2081       C  0.78067458  0.64881736  0.17457783    -0.05960
Co2082     Co  0.69554886  0.80356607  0.13111140     0.74180
N2083       N  0.66521865  0.73059192  0.15398701    -0.25140
Co2084     Co  0.69804391  0.69910613  0.13001312     0.74070
C2085       C  0.74336898  0.63664158  0.18541127     0.43480
N2086       N  0.83004714  0.73166329  0.15808786     0.01880
N2087       N  0.72912869  0.66885002  0.15528069     0.01990
N2088       N  0.64316967  0.78615120  0.08928789    -0.45990
H2089       H  0.68021744  0.86002837  0.17806233     0.07740
N2090       N  0.66472479  0.77012617  0.15499895     0.02270
N2091       N  0.73293294  0.66808487  0.10612483     0.02010
C2092       C  0.75313115  0.62804404  0.08004553     0.43620
N2093       N  0.82873178  0.77124679  0.15848570    -0.24600
C2094       C  0.71670433  0.86059624  0.09134559    -0.05520
N2095       N  0.77949962  0.85112026  0.17521168    -0.45700
N2096       N  0.71991821  0.64409573  0.08996429    -0.45930
C2097       C  0.75369239  0.87628542  0.08145413     0.43390
N2098       N  0.66644605  0.77143547  0.10552424     0.02260
N2099       N  0.83368913  0.77330151  0.10972134    -0.24620
N2100       N  0.72556035  0.83313164  0.15666536    -0.25110
N2101       N  0.83472215  0.73362740  0.10874753     0.01900
H2102       H  0.86346447  0.81976639  0.09112118     0.07790
H2103       H  0.81974218  0.63720232  0.08950463     0.07820
N2104       N  0.66776212  0.73169430  0.10552292    -0.25160
N2105       N  0.76881349  0.66915434  0.15625266    -0.24770
N2106       N  0.76890718  0.83652450  0.10865072     0.02260
C2107       C  0.63232519  0.75143173  0.18446780     0.43660
C2108       C  0.84776722  0.78390765  0.17689840    -0.06030
N2109       N  0.77266015  0.66853386  0.10743616    -0.24770
H2110       H  0.81148045  0.64356388  0.17982080     0.07810
N2111       N  0.64546053  0.78387441  0.17296018    -0.46000
H2112       H  0.85250755  0.81491665  0.18154789     0.07790
C2113       C  0.87366148  0.75303249  0.08207515     0.43490
C2114       C  0.71154474  0.85380521  0.17438235    -0.05520
Co2115     Co  0.79979987  0.80401829  0.13350685     0.73820
N2116       N  0.84972154  0.71611565  0.17541855    -0.45710
C2117       C  0.62862997  0.75409164  0.07799894     0.43760
N2118       N  0.78487764  0.86005626  0.09306450    -0.45700
Co2119     Co  0.80240174  0.69998111  0.13247698     0.73890
C2120       C  0.78804809  0.64405414  0.09177683    -0.06030
C2121       C  0.64435002  0.71613653  0.17124957    -0.05590
N2122       N  0.72911447  0.83622436  0.10790435    -0.25120
N2123       N  0.71276924  0.64896756  0.17215164    -0.45880
H2124       H  0.63847746  0.68671573  0.08578330     0.07770
C2125       C  0.85771083  0.78817298  0.09385100    -0.06010
Cl2126     Cl  0.74894952  0.75166536  0.13145269    -0.49010
C2127       C  0.86068774  0.74729706  0.18842373     0.43520
H2128       H  0.68563377  0.86694502  0.08697358     0.07730
N2129       N  0.85831275  0.72013151  0.09233686    -0.45720
C2130       C  0.62952602  0.49953088  0.67886676     0.43370
N2131       N  0.58909581  0.97915916  0.65295145     0.02260
C2132       C  0.95892822  0.60160812  0.59039132    -0.05610
H2133       H  0.93244683  0.60320041  0.67449779     0.07760
C2134       C  0.89659672  0.95563329  0.67086351    -0.05960
Co2135     Co  0.55087939  0.54900133  0.62826240     0.74180
N2136       N  0.97777594  0.57554500  0.65356976    -0.25140
Co2137     Co  0.94644724  0.54310167  0.62967169     0.74070
C2138       C  0.87880339  0.49151942  0.68125868     0.43480
N2139       N  0.98802407  0.91157884  0.65391196     0.01880
N2140       N  0.91800761  0.50946076  0.65445269     0.01990
N2141       N  0.52659844  0.60649886  0.58924409    -0.45990
H2142       H  0.61093695  0.56585824  0.67189923     0.07740
N2143       N  0.51744834  0.57756543  0.65315552     0.02270
N2144       N  0.91610949  0.50921671  0.60565306     0.02010
C2145       C  0.87382698  0.49003621  0.58032169     0.43620
N2146       N  0.52777900  0.91298886  0.65392431    -0.24600
C2147       C  0.60848145  0.53253492  0.58791831    -0.05520
N2148       N  0.61520886  0.96644731  0.66837607    -0.45700
N2149       N  0.88976315  0.52249319  0.59065368    -0.45930
C2150       C  0.62997255  0.49721142  0.57884991     0.43390
N2151       N  0.51509995  0.57930496  0.60424272     0.02260
N2152       N  0.52716690  0.91223043  0.60489803    -0.24620
N2153       N  0.58540469  0.51869316  0.65247089    -0.25110
N2154       N  0.98739755  0.91073616  0.60508076     0.01900
H2155       H  0.57228187  0.88428164  0.58382140     0.07790
H2156       H  0.89020204  0.92309886  0.58791435     0.07820
N2157       N  0.97557564  0.57636570  0.60522436    -0.25160
N2158       N  0.92026442  0.96984065  0.65441051    -0.24770
N2159       N  0.58805913  0.97850571  0.60439923     0.02260
C2160       C  0.99999301  0.61412745  0.68111957     0.43660
C2161       C  0.54144421  0.89054654  0.67110933    -0.06030
N2162       N  0.91899227  0.96972289  0.60587272    -0.24770
H2163       H  0.89115329  0.92422502  0.67438958     0.07810
N2164       N  0.53196691  0.60035610  0.66931301    -0.46000
H2165       H  0.57273435  0.88474010  0.67505359     0.07790
C2166       C  0.00474483  0.87358546  0.57720485     0.43490
C2167       C  0.60875979  0.53410553  0.66846761    -0.05520
Co2168     Co  0.55865168  0.94487146  0.62906935     0.73820
N2169       N  0.97332663  0.88922314  0.67021999    -0.45710
C2170       C  0.99271676  0.62241524  0.57971556     0.43760
N2171       N  0.61513735  0.96490510  0.58982909    -0.45700
Co2172     Co  0.95347463  0.93979319  0.62975219     0.73890
C2173       C  0.89403431  0.95481735  0.59047230    -0.06030
C2174       C  0.96389748  0.59802107  0.67053873    -0.05590
N2175       N  0.58412255  0.51807772  0.60384965    -0.25120
N2176       N  0.89348597  0.52362811  0.67013526    -0.45880
H2177       H  0.92687551  0.60596922  0.58899227     0.07770
C2178       C  0.54091857  0.88957634  0.58786437    -0.06010
Cl2179     Cl  0.00243546  0.49424443  0.62907949    -0.49010
C2180       C  0.00508501  0.87506230  0.68187380     0.43520
H2181       H  0.61188658  0.56411578  0.58416490     0.07730
N2182       N  0.97285914  0.88800745  0.58887464    -0.45720
C2183       C  0.99580461  0.88534482  0.31463970     0.43370
N2184       N  0.51261101  0.91518505  0.34522300     0.02260
C2185       C  0.88604396  0.54453548  0.40468390    -0.05610
H2186       H  0.89624868  0.57336293  0.32066153     0.07760
C2187       C  0.54479659  0.59780910  0.32920532    -0.05960
Co2188     Co  0.94084497  0.95253033  0.36771457     0.74180
N2189       N  0.91933695  0.52682850  0.34175690    -0.25140
Co2190     Co  0.94902927  0.55626699  0.36702204     0.74070
C2191       C  0.01202182  0.61481819  0.31603689     0.43480
N2192       N  0.58301548  0.51139397  0.34800458     0.01880
N2193       N  0.98735777  0.58290524  0.34394601     0.01990
N2194       N  0.88252760  0.97662432  0.40617346    -0.45990
H2195       H  0.92899565  0.89962300  0.32031111     0.07740
N2196       N  0.91611891  0.98749737  0.34197894     0.02270
N2197       N  0.97962612  0.58463616  0.39258303     0.02010
C2198       C  0.99374429  0.62253777  0.42026528     0.43620
N2199       N  0.57988978  0.97190082  0.34760493    -0.24600
C2200       C  0.95163199  0.89304219  0.40835942    -0.05520
N2201       N  0.52728049  0.89384437  0.32821636    -0.45700
N2202       N  0.96322616  0.60914672  0.40759855    -0.45930
C2203       C  0.98577593  0.87369833  0.42003706     0.43390
N2204       N  0.90886242  0.98843383  0.39084436     0.02260
N2205       N  0.57780114  0.97170018  0.39659270    -0.24620
N2206       N  0.97316258  0.91969947  0.34407323    -0.25110
N2207       N  0.57979926  0.51138367  0.39682836     0.01900
H2208       H  0.60861964  0.92552982  0.41583951     0.07790
H2209       H  0.56164971  0.60849414  0.41676424     0.07820
N2210       N  0.91157382  0.52802204  0.38985101    -0.25160
N2211       N  0.52666921  0.57882122  0.34608863    -0.24770
N2212       N  0.50785463  0.91394586  0.39454249     0.02260
C2213       C  0.88378895  0.50637824  0.31223790     0.43660
C2214       C  0.59999884  0.95768773  0.32972287    -0.06030
N2215       N  0.51914019  0.58073232  0.39463710    -0.24770
H2216       H  0.57694947  0.59918604  0.32648362     0.07810
N2217       N  0.89517948  0.97426806  0.32479499    -0.46000
H2218       H  0.60284730  0.92646508  0.32486344     0.07790
C2219       C  0.62135939  0.49265193  0.42275034     0.43490
C2220       C  0.95995241  0.90151865  0.32553137    -0.05520
Co2221     Co  0.54513034  0.94227419  0.37120328     0.73820
N2222       N  0.60433651  0.52544372  0.33105987    -0.45710
C2223       C  0.86638062  0.51055382  0.41522914     0.43760
N2224       N  0.51950797  0.88826790  0.41037193    -0.45700
Co2225     Co  0.55276992  0.54611438  0.37169231     0.73890
C2226       C  0.53089561  0.60387835  0.41170994    -0.06030
C2227       C  0.89964226  0.54165986  0.32395059    -0.05590
N2228       N  0.96821367  0.91748909  0.39305707    -0.25120
N2229       N  0.97713001  0.60457348  0.32614838    -0.45880
H2230       H  0.88170052  0.57639417  0.40762320     0.07770
C2231       C  0.60274474  0.95707828  0.41257567    -0.06010
Cl2232     Cl  0.99691990  0.49922119  0.36978637    -0.49010
C2233       C  0.61491621  0.49348543  0.31849555     0.43520
H2234       H  0.91968049  0.88790234  0.41008356     0.07730
N2235       N  0.60544562  0.52488386  0.41194602    -0.45720
C2236       C  0.49192730  0.76726522  0.49910053     0.01480
C2237       C  0.49169425  0.72536054  0.49980923     0.01480
C2238       C  0.77533949  0.00475786  0.49931613     0.01480
C2239       C  0.73338102  0.00167392  0.49951645     0.01480
C2240       C  0.50129711  0.74752459  0.25106243    -0.01570
C2241       C  0.99358564  0.78423803  0.26820574    -0.04420
C2242       C  0.49173193  0.77949155  0.29238688    -0.01540
C2243       C  0.49808030  0.81228314  0.30671410     0.03450
C2244       C  0.99530658  0.85153765  0.29843868    -0.04420
C2245       C  0.98594031  0.85760887  0.27562725    -0.01530
C2246       C  0.98564489  0.82453973  0.26047184     0.03450
C2247       C  0.47609124  0.74406114  0.30366248     0.38100
C2248       C  0.97852573  0.89825091  0.26757096     0.38090
C2249       C  0.97903082  0.83311865  0.23689988     0.36510
C2250       C  0.50401840  0.80553669  0.33063663     0.36510
N2251       N  0.97376108  0.84081014  0.21819411    -0.38310
N2252       N  0.50871042  0.80020482  0.34963578    -0.38310
N2253       N  0.97258569  0.93069667  0.26118580    -0.37750
N2254       N  0.46282162  0.71717864  0.31348217    -0.37760
C2255       C  0.01485274  0.64315519  0.29699108    -0.04420
C2256       C  0.54281459  0.67447319  0.29710525    -0.01540
C2257       C  0.54068491  0.70487871  0.28069523     0.03450
C2258       C  0.00674504  0.70768095  0.26550728    -0.04420
C2259       C  0.98148944  0.67271595  0.26425826    -0.01530
C2260       C  0.98768128  0.64010820  0.27917449     0.03450
C2261       C  0.57182820  0.67793699  0.31524357     0.38100
C2262       C  0.95185012  0.66652008  0.24680437     0.38090
C2263       C  0.96914684  0.60140181  0.27510857     0.36510
C2264       C  0.57163114  0.73548426  0.28178086     0.36510
N2265       N  0.95594196  0.56994943  0.27165225    -0.38310
N2266       N  0.59717570  0.75865949  0.28357060    -0.38310
N2267       N  0.92840418  0.65946380  0.23304241    -0.37750
N2268       N  0.59491533  0.68130971  0.32962861    -0.37760
C2269       C  0.48963660  0.69812950  0.47921644    -0.04420
C2270       C  0.01264138  0.66139671  0.47841948    -0.01540
C2271       C  0.00804404  0.63449186  0.46052023     0.03450
C2272       C  0.98890029  0.64715139  0.44082842    -0.04420
C2273       C  0.46504465  0.68251643  0.44130179    -0.01530
C2274       C  0.46226245  0.70547051  0.46122094     0.03450
C2275       C  0.04210255  0.65004841  0.49525546     0.38100
C2276       C  0.44288233  0.69504992  0.42150570     0.38090
C2277       C  0.42808867  0.73257451  0.46379150     0.36510
C2278       C  0.01875154  0.59225386  0.46333847     0.36510
N2279       N  0.39969597  0.75292712  0.46547582    -0.38310
N2280       N  0.02589509  0.55833565  0.46575707    -0.38310
N2281       N  0.42539315  0.70524383  0.40566780    -0.37750
N2282       N  0.06617693  0.63894862  0.50794604    -0.37760
C2283       C  0.48878197  0.79176657  0.47754705    -0.04420
C2284       C  0.95833040  0.82207432  0.47543223    -0.01540
C2285       C  0.95607778  0.84696046  0.45624123     0.03450
C2286       C  0.98546723  0.84402980  0.43915358    -0.04420
C2287       C  0.51560344  0.81349315  0.44095922    -0.01530
C2288       C  0.51727868  0.78762731  0.45992271     0.03450
C2289       C  0.92792414  0.82798231  0.49266940     0.38100
C2290       C  0.54459425  0.80775595  0.42299595     0.38090
C2291       C  0.55002508  0.75846236  0.46175778     0.36510
C2292       C  0.92283373  0.87555414  0.45448570     0.36510
N2293       N  0.57631982  0.73537520  0.46313009    -0.38310
N2294       N  0.89523661  0.89709938  0.45349161    -0.38310
N2295       N  0.56770013  0.80299710  0.40867069    -0.37750
N2296       N  0.90269858  0.83466930  0.50559543    -0.37760
C2297       C  0.65188579  0.49531332  0.44137190    -0.04420
C2298       C  0.68429563  0.96744544  0.44361693    -0.01540
C2299       C  0.71209009  0.97044571  0.46172153     0.03450
C2300       C  0.70647045  0.99987405  0.47877228    -0.04420
C2301       C  0.67300247  0.52682585  0.47651279    -0.01530
C2302       C  0.64894595  0.52681368  0.45708520     0.03450
C2303       C  0.69096313  0.93731425  0.42644743     0.38100
C2304       C  0.66202695  0.55581426  0.49366409     0.38090
C2305       C  0.62319077  0.56153896  0.45294114     0.36510
C2306       C  0.74573869  0.94231486  0.46280114     0.36510
N2307       N  0.60503449  0.59098678  0.45008468    -0.38310
N2308       N  0.77267805  0.91986588  0.46302226    -0.38310
N2309       N  0.65009102  0.57944656  0.50633821    -0.37750
N2310       N  0.69660785  0.91337810  0.41270634    -0.37760
C2311       C  0.84435084  0.51207360  0.43681351    -0.04420
C2312       C  0.86317414  0.99692376  0.45607958    -0.01540
C2313       C  0.84163256  0.99419887  0.47640661     0.03450
C2314       C  0.80143285  0.01072323  0.47829410    -0.04420
C2315       C  0.78768384  0.53473175  0.46000141    -0.01530
C2316       C  0.80702874  0.53232009  0.43889547     0.03450
C2317       C  0.90603516  0.98691375  0.45525698     0.38100
C2318       C  0.75808740  0.56649691  0.46348229     0.38090
C2319       C  0.78877436  0.55122296  0.41940855     0.36510
C2320       C  0.86348039  0.97597494  0.49490692     0.36510
N2321       N  0.77407370  0.56601942  0.40380521    -0.38310
N2322       N  0.88340088  0.96187305  0.50885346    -0.38310
N2323       N  0.73544208  0.59289168  0.46593257    -0.37750
N2324       N  0.94022904  0.97964274  0.45455796    -0.37760
C2325       C  0.71125997  0.99887793  0.52174970    -0.04420
C2326       C  0.69102733  0.96320687  0.52779656    -0.01540
C2327       C  0.66900469  0.96102512  0.54804248     0.03450
C2328       C  0.66239831  0.49593400  0.56117012    -0.04420
C2329       C  0.68559655  0.53036010  0.55629782    -0.01530
C2330       C  0.70918638  0.53215030  0.53660629     0.03450
C2331       C  0.69108641  0.92888876  0.51284635     0.38100
C2332       C  0.68728742  0.56357421  0.57200179     0.38090
C2333       C  0.72594955  0.57068183  0.53033782     0.36510
C2334       C  0.65541918  0.92209090  0.55576649     0.36510
N2335       N  0.73648426  0.60267672  0.52562004    -0.38310
N2336       N  0.64589863  0.89061042  0.56203046    -0.38310
N2337       N  0.68931819  0.59019795  0.58440731    -0.37750
N2338       N  0.69016277  0.90124988  0.50110491    -0.37760
C2339       C  0.79718804  0.00065998  0.52136803    -0.04420
C2340       C  0.81498623  0.53434681  0.53142079    -0.01540
C2341       C  0.83241449  0.53084966  0.55277606     0.03450
C2342       C  0.84343764  0.49258473  0.56150917    -0.04420
C2343       C  0.82704917  0.95811317  0.55091285    -0.01530
C2344       C  0.80248544  0.96248092  0.53161351     0.03450
C2345       C  0.81843529  0.57196747  0.51926564     0.38100
C2346       C  0.83514173  0.91769531  0.55901953     0.38090
C2347       C  0.78887557  0.92663316  0.52020727     0.36510
C2348       C  0.83353986  0.56628292  0.56676912     0.36510
N2349       N  0.77969456  0.89713265  0.51143646    -0.38310
N2350       N  0.83236595  0.59363348  0.57870312    -0.38310
N2351       N  0.84073954  0.88467952  0.56456293    -0.37750
N2352       N  0.82199284  0.60185487  0.50949678    -0.37760
C2353       C  0.99151776  0.65406857  0.56140401    -0.04420
C2354       C  0.52631277  0.67620450  0.55528570    -0.01540
C2355       C  0.52552441  0.70238035  0.53640229     0.03450
C2356       C  0.49155654  0.70336551  0.52200236    -0.04420
C2357       C  0.95759308  0.68059111  0.52792461    -0.01530
C2358       C  0.95591258  0.66122599  0.54881267     0.03450
C2359       C  0.56295060  0.67296145  0.56842659     0.38100
C2360       C  0.92323114  0.67770270  0.51293213     0.38090
C2361       C  0.91632856  0.65560405  0.55823372     0.36510
C2362       C  0.56157696  0.72409725  0.53027238     0.36510
N2363       N  0.88390876  0.65436555  0.56528581    -0.38310
N2364       N  0.59078096  0.74070493  0.52541212    -0.38310
N2365       N  0.89546887  0.67475434  0.50135137    -0.37750
N2366       N  0.59237104  0.67049934  0.57877754    -0.37760
C2367       C  0.00198440  0.84549149  0.55776068    -0.04420
C2368       C  0.52830410  0.84926580  0.53933246    -0.01540
C2369       C  0.52732924  0.82134139  0.52157423     0.03450
C2370       C  0.49625597  0.79234860  0.52026524    -0.04420
C2371       C  0.96747404  0.79122412  0.53794705    -0.01530
C2372       C  0.97194989  0.81572090  0.55709609     0.03450
C2373       C  0.55326820  0.88457790  0.53717155     0.38100
C2374       C  0.93029824  0.76918991  0.53572964     0.38090
C2375       C  0.94474855  0.81058058  0.57595111     0.36510
C2376       C  0.55868379  0.82332684  0.50465368     0.36510
N2377       N  0.92302523  0.80637654  0.59094407    -0.38310
N2378       N  0.58446460  0.82578093  0.49165585    -0.38310
N2379       N  0.89922839  0.75387451  0.53460056    -0.37750
N2380       N  0.57205230  0.91338260  0.53481720    -0.37760
C2381       C  0.54299287  0.74994498  0.23758989    -0.04420
C2382       C  0.56542282  0.78607929  0.23356415    -0.01540
C2383       C  0.59220019  0.78807695  0.21511039     0.03450
C2384       C  0.60854707  0.75226308  0.20587407    -0.04420
C2385       C  0.59766711  0.71598899  0.21620553    -0.01530
C2386       C  0.56099416  0.71411968  0.22783291     0.03450
C2387       C  0.56870011  0.81854579  0.24950170     0.38100
C2388       C  0.62292356  0.68010237  0.21486522     0.38090
C2389       C  0.54144111  0.67539539  0.22648868     0.36510
C2390       C  0.60047895  0.82712649  0.20538777     0.36510
N2391       N  0.52837872  0.64351355  0.22424027    -0.38310
N2392       N  0.60609834  0.85858590  0.19771386    -0.38310
N2393       N  0.64246721  0.65103504  0.21427588    -0.37750
N2394       N  0.57406811  0.84470053  0.26188749    -0.37760
C2395       C  0.89502056  0.74523931  0.20410976    -0.04420
C2396       C  0.88935294  0.75005719  0.22711935    -0.01540
C2397       C  0.92277430  0.74995143  0.24195660     0.03450
C2398       C  0.96391615  0.74707349  0.23384800    -0.04420
C2399       C  0.96779936  0.74577899  0.20952044    -0.01530
C2400       C  0.93384653  0.74199963  0.19543725     0.03450
C2401       C  0.84835945  0.75440462  0.23556157     0.38100
C2402       C  0.00432330  0.75225474  0.19687707     0.38090
C2403       C  0.93868401  0.73707082  0.17122200     0.36510
C2404       C  0.91243166  0.75242567  0.26546372     0.36510
N2405       N  0.94238487  0.73331061  0.15204759    -0.38310
N2406       N  0.89967782  0.75505292  0.28346279    -0.38310
N2407       N  0.53023731  0.75734739  0.18423540    -0.37750
N2408       N  0.81573113  0.75788646  0.24222911    -0.37760
C2409       C  0.75362711  0.59978853  0.06055232    -0.04420
C2410       C  0.72628190  0.56755814  0.05912180    -0.01540
C2411       C  0.72714295  0.54109159  0.04049556     0.03450
C2412       C  0.75674507  0.54528492  0.02343661    -0.04420
C2413       C  0.78476534  0.57726044  0.02543110    -0.01530
C2414       C  0.78234439  0.60476186  0.04335052     0.03450
C2415       C  0.69719181  0.56132947  0.07691653     0.38100
C2416       C  0.81711759  0.58254563  0.00934031     0.38090
C2417       C  0.80843089  0.63965227  0.04326194     0.36510
C2418       C  0.69550694  0.51163982  0.03830912     0.36510
N2419       N  0.82916923  0.66742052  0.04299970    -0.38310
N2420       N  0.66984083  0.48854036  0.03673370    -0.38310
N2421       N  0.84375433  0.58852069  0.99728721    -0.37750
N2422       N  0.67401279  0.55624571  0.09112203    -0.37760
C2423       C  0.75739393  0.95145624  0.02162719    -0.04420
C2424       C  0.73186091  0.91716107  0.02313768    -0.01540
C2425       C  0.73329109  0.89139330  0.04193301     0.03450
C2426       C  0.75710319  0.90093197  0.06061060    -0.04420
C2427       C  0.78372685  0.93365092  0.05909416    -0.01530
C2428       C  0.78571543  0.95705086  0.03921583     0.03450
C2429       C  0.70316658  0.90717353  0.00579703     0.38100
C2430       C  0.80854889  0.94394515  0.07817937     0.38090
C2431       C  0.81938567  0.98393465  0.03634662     0.36510
C2432       C  0.71130064  0.85374952  0.04154739     0.36510
N2433       N  0.84711596  0.00443159  0.03433750    -0.38310
N2434       N  0.69412438  0.82364544  0.04111146    -0.38310
N2435       N  0.82805383  0.95245072  0.09348178    -0.37750
N2436       N  0.67982561  0.89699287  0.99264664    -0.37760
C2437       C  0.75257269  0.54622710  0.98066771    -0.04420
C2438       C  0.78310115  0.54489727  0.96398030    -0.01540
C2439       C  0.78085245  0.57029707  0.94500290     0.03450
C2440       C  0.75044155  0.60037655  0.94333840    -0.04420
C2441       C  0.72000688  0.60200291  0.95989637    -0.01530
C2442       C  0.72071716  0.57491592  0.97818948     0.03450
C2443       C  0.81973545  0.52141270  0.96726885     0.38100
C2444       C  0.68844373  0.63261223  0.95878074     0.38090
C2445       C  0.68849036  0.57761408  0.99460713     0.36510
C2446       C  0.80976293  0.56450411  0.92697866     0.36510
N2447       N  0.66220057  0.58063957  0.00728347    -0.38310
N2448       N  0.83282495  0.55948125  0.91265535    -0.38310
N2449       N  0.66311203  0.65684512  0.95819490    -0.37750
N2450       N  0.85031593  0.50473934  0.96942344    -0.37760
C2451       C  0.75467970  0.95769193  0.97859358    -0.04420
C2452       C  0.78727418  0.93256830  0.97212570    -0.01540
C2453       C  0.78688782  0.91249548  0.95133648     0.03450
C2454       C  0.75129236  0.91156007  0.93816158    -0.04420
C2455       C  0.71870016  0.93724397  0.94447795    -0.01530
C2456       C  0.72050267  0.96026369  0.96440887     0.03450
C2457       C  0.82170354  0.92695157  0.98689260     0.38100
C2458       C  0.68348598  0.94160962  0.93027449     0.38090
C2459       C  0.68472177  0.98205950  0.97175730     0.36510
C2460       C  0.82456114  0.89533073  0.94339283     0.36510
N2461       N  0.65537258  0.99806042  0.97757009    -0.38310
N2462       N  0.85596546  0.88392362  0.93765421    -0.38310
N2463       N  0.65510432  0.94569804  0.91919262    -0.37750
N2464       N  0.84941217  0.92209059  0.99839375    -0.37760
C2465       C  0.00035106  0.70610099  0.73351738    -0.04420
C2466       C  0.53064905  0.70467939  0.71607289    -0.01540
C2467       C  0.52989886  0.67543393  0.69894753     0.03450
C2468       C  0.00189187  0.64407537  0.69958853    -0.04420
C2469       C  0.97414301  0.64252286  0.71729783    -0.01530
C2470       C  0.97033955  0.67480484  0.73252002     0.03450
C2471       C  0.56444151  0.73211670  0.71553306     0.38100
C2472       C  0.94858750  0.60745088  0.71981870     0.38090
C2473       C  0.93180488  0.67643228  0.74400506     0.36510
C2474       C  0.55798255  0.67840216  0.68028638     0.36510
N2475       N  0.90014350  0.67658144  0.75218097    -0.38310
N2476       N  0.58034368  0.68098359  0.66546277    -0.38310
N2477       N  0.92830572  0.57958782  0.72191014    -0.37750
N2478       N  0.59260401  0.75218262  0.71411686    -0.37760
C2479       C  0.99976054  0.78157012  0.73327884    -0.04420
C2480       C  0.97274618  0.78225109  0.71423671    -0.01540
C2481       C  0.97640262  0.81114733  0.69702353     0.03450
C2482       C  0.00220752  0.84394167  0.69959016    -0.04420
C2483       C  0.52556723  0.84673449  0.71895430    -0.01530
C2484       C  0.52878130  0.81389002  0.73385566     0.03450
C2485       C  0.93895212  0.75510323  0.71217230     0.38100
C2486       C  0.54547893  0.88434407  0.72406075     0.38090
C2487       C  0.56586465  0.81335946  0.74672168     0.36510
C2488       C  0.95312882  0.80690353  0.67652112     0.36510
N2489       N  0.59640124  0.81435146  0.75609030    -0.38310
N2490       N  0.93464064  0.80338148  0.66021966    -0.38310
N2491       N  0.56026081  0.91463628  0.72854251    -0.37750
N2492       N  0.91079206  0.73553083  0.70936486    -0.37760
C2493       C  0.53532014  0.74463009  0.76766687    -0.04420
C2494       C  0.56778249  0.71516405  0.76891424    -0.01540
C2495       C  0.59920643  0.71913674  0.78470359     0.03450
C2496       C  0.59618021  0.74722560  0.80215130    -0.04420
C2497       C  0.56325908  0.77400623  0.80276109    -0.01530
C2498       C  0.53454238  0.77439328  0.78537590     0.03450
C2499       C  0.56899023  0.67773144  0.75644427     0.38100
C2500       C  0.55840558  0.80138872  0.82160655     0.38090
C2501       C  0.50623149  0.80814711  0.78557769     0.36510
C2502       C  0.63524475  0.69387978  0.78288679     0.36510
N2503       N  0.98556456  0.83637921  0.78676674    -0.38310
N2504       N  0.66393573  0.67391603  0.78131637    -0.38310
N2505       N  0.55436647  0.82312818  0.83658751    -0.37750
N2506       N  0.57136503  0.64695951  0.74742595    -0.37760
C2507       C  0.96031819  0.74370343  0.76628807    -0.04420
C2508       C  0.92825705  0.77366357  0.76637427    -0.01540
C2509       C  0.89676019  0.77222322  0.78235362     0.03450
C2510       C  0.89852440  0.74537575  0.80054269    -0.04420
C2511       C  0.92965263  0.71645495  0.80137035    -0.01530
C2512       C  0.95889545  0.71429859  0.78420950     0.03450
C2513       C  0.92770105  0.80954183  0.75248611     0.38100
C2514       C  0.93250664  0.68895903  0.82034241     0.38090
C2515       C  0.98602947  0.67965363  0.78506923     0.36510
C2516       C  0.86227454  0.79941760  0.78012689     0.36510
N2517       N  0.00556445  0.65071760  0.78677077    -0.38310
N2518       N  0.83515811  0.82137704  0.77826577    -0.38310
N2519       N  0.93499546  0.66704806  0.83540142    -0.37750
N2520       N  0.92560597  0.83929482  0.74238539    -0.37760
C2521       C  0.79014607  0.50462546  0.73530390    -0.04420
C2522       C  0.82538818  0.97897008  0.73773013    -0.01540
C2523       C  0.85293402  0.97320984  0.71972065     0.03450
C2524       C  0.84786230  0.49425540  0.69941645    -0.04420
C2525       C  0.81634061  0.52269287  0.69774931    -0.01530
C2526       C  0.79157477  0.53122910  0.71635403     0.03450
C2527       C  0.83802072  0.96311199  0.75934085     0.38100
C2528       C  0.81011853  0.54509878  0.67704973     0.38090
C2529       C  0.77957253  0.57310801  0.71809123     0.36510
C2530       C  0.88813414  0.94726914  0.72260975     0.36510
N2531       N  0.77344449  0.60747313  0.71865549    -0.38310
N2532       N  0.91633380  0.92682390  0.72486827    -0.38310
N2533       N  0.80501748  0.56297976  0.66060518    -0.37750
N2534       N  0.84949254  0.95009148  0.77621469    -0.37760
C2535       C  0.71196295  0.50413540  0.73674604    -0.04420
C2536       C  0.69953592  0.53899867  0.72436946    -0.01540
C2537       C  0.67931793  0.53573408  0.70376675     0.03450
C2538       C  0.65945780  0.49994056  0.69796179    -0.04420
C2539       C  0.66447115  0.96658980  0.71251312    -0.01530
C2540       C  0.68685065  0.96997336  0.73270219     0.03450
C2541       C  0.69711965  0.57837240  0.73476752     0.38100
C2542       C  0.64785816  0.92781472  0.70678532     0.38090
C2543       C  0.67470940  0.94312764  0.75061732     0.36510
C2544       C  0.68200038  0.56925551  0.68825075     0.36510
N2545       N  0.66337721  0.92162938  0.76450711    -0.38310
N2546       N  0.68512591  0.59608997  0.67598700    -0.38310
N2547       N  0.63600105  0.89624991  0.70229062    -0.37750
N2548       N  0.69397022  0.61006807  0.74264586    -0.37760
C2549       C  0.75005187  0.54331099  0.76755242    -0.04420
C2550       C  0.78272931  0.57107246  0.77048433    -0.01540
C2551       C  0.77881180  0.60430070  0.78506904     0.03450
C2552       C  0.74664367  0.60687391  0.80038655    -0.04420
C2553       C  0.71384154  0.58085014  0.79772508    -0.01530
C2554       C  0.71506844  0.54999985  0.78148234     0.03450
C2555       C  0.82333816  0.56360820  0.76229450     0.38100
C2556       C  0.67844204  0.58494196  0.81200443     0.38090
C2557       C  0.67986278  0.52460725  0.78040897     0.36510
C2558       C  0.80859572  0.63598930  0.78430984     0.36510
N2559       N  0.65012415  0.50679381  0.78073179    -0.38310
N2560       N  0.83215360  0.66136187  0.78369767    -0.38310
N2561       N  0.65000905  0.58803718  0.82316040    -0.37750
N2562       N  0.85639231  0.55920316  0.75645425    -0.37760
C2563       C  0.74795370  0.89741329  0.79756391    -0.04420
C2564       C  0.75139948  0.89183319  0.77426986    -0.01540
C2565       C  0.75581178  0.92543856  0.75970750     0.03450
C2566       C  0.75523639  0.96589599  0.76833406    -0.04420
C2567       C  0.76010964  0.96880110  0.79233798    -0.01530
C2568       C  0.75174700  0.93605047  0.80644624     0.03450
C2569       C  0.74828636  0.85156409  0.76517337     0.38100
C2570       C  0.78256850  0.00063368  0.80308539     0.38090
C2571       C  0.74936610  0.94189746  0.83060730     0.36510
C2572       C  0.76002519  0.91772194  0.73584571     0.36510
N2573       N  0.74735580  0.94643593  0.84980192    -0.38310
N2574       N  0.76334057  0.91130854  0.71686991    -0.38310
N2575       N  0.80108661  0.02428972  0.81271804    -0.37750
N2576       N  0.74554693  0.81947631  0.75788129    -0.37760
C2577       C  0.54400627  0.75483731  0.02225034    -0.04420
C2578       C  0.54157562  0.78494496  0.03907671    -0.01540
C2579       C  0.56863059  0.78440877  0.05743113     0.03450
C2580       C  0.60014207  0.75542727  0.05860117    -0.04420
C2581       C  0.60386393  0.72663944  0.04131752    -0.01530
C2582       C  0.57539185  0.72540791  0.02383659     0.03450
C2583       C  0.51396084  0.81883356  0.03674387     0.38100
C2584       C  0.63829594  0.69914074  0.04065270     0.38090
C2585       C  0.57895053  0.69295232  0.00767625     0.36510
C2586       C  0.56369763  0.81383248  0.07517402     0.36510
N2587       N  0.58304636  0.66631064  0.99539301    -0.38310
N2588       N  0.55961571  0.83730392  0.08931647    -0.38310
N2589       N  0.66563437  0.67719204  0.03988943    -0.37750
N2590       N  0.49298007  0.84676631  0.03516488    -0.37760
C2591       C  0.95216834  0.75620922  0.02357018    -0.04420
C2592       C  0.95623111  0.72488736  0.03970584    -0.01540
C2593       C  0.93117876  0.72417144  0.05894873     0.03450
C2594       C  0.90004863  0.75315147  0.06174442    -0.04420
C2595       C  0.89442053  0.78296814  0.04506908    -0.01530
C2596       C  0.92095991  0.78537591  0.02667940     0.03450
C2597       C  0.98319655  0.69100948  0.03573067     0.38100
C2598       C  0.85978441  0.81016641  0.04587511     0.38090
C2599       C  0.91555106  0.81864563  0.01110268     0.36510
C2600       C  0.93758840  0.69334785  0.07588021     0.36510
N2601       N  0.91011713  0.84577075  0.99923847    -0.38310
N2602       N  0.94276411  0.66876161  0.08938032    -0.38310
N2603       N  0.83223938  0.83188037  0.04618666    -0.37750
N2604       N  0.00364194  0.66303680  0.03285493    -0.37760
C2605       C  0.54177727  0.75834779  0.97952221    -0.04420
C2606       C  0.53819042  0.72822417  0.96283239    -0.01540
C2607       C  0.56289910  0.72891992  0.94352613     0.03450
C2608       C  0.59367532  0.75777013  0.94129437    -0.04420
C2609       C  0.59734174  0.78783888  0.95774626    -0.01530
C2610       C  0.57149767  0.78846490  0.97653034     0.03450
C2611       C  0.51232227  0.69387733  0.96629017     0.38100
C2612       C  0.62907940  0.81739872  0.95599131     0.38090
C2613       C  0.57631501  0.82058587  0.99271007     0.36510
C2614       C  0.55595048  0.70001680  0.92579203     0.36510
N2615       N  0.58131295  0.84686473  0.00505213    -0.38310
N2616       N  0.55010233  0.67699362  0.91167719    -0.38310
N2617       N  0.65440258  0.84091875  0.95467837    -0.37750
N2618       N  0.99277364  0.66559659  0.96874272    -0.37760
C2619       C  0.95069624  0.75617685  0.98067217    -0.04420
C2620       C  0.95378638  0.78691567  0.96420371    -0.01540
C2621       C  0.92936376  0.78634276  0.94480335     0.03450
C2622       C  0.89851830  0.75759637  0.94252643    -0.04420
C2623       C  0.89370083  0.72837514  0.95951082    -0.01530
C2624       C  0.92021992  0.72680693  0.97796695     0.03450
C2625       C  0.97900970  0.82158872  0.96792845     0.38100
C2626       C  0.86008273  0.70077787  0.95881804     0.38090
C2627       C  0.91563663  0.69415354  0.99394878     0.36510
C2628       C  0.93689675  0.81517996  0.92703585     0.36510
N2629       N  0.91085866  0.66747749  0.00613621    -0.38310
N2630       N  0.94327872  0.83820681  0.91292374    -0.38310
N2631       N  0.83327289  0.67882275  0.95879479    -0.37750
N2632       N  0.99788980  0.85022718  0.97059721    -0.37760
C2633       C  0.85455865  0.50406973  0.29300900    -0.04420
C2634       C  0.84474368  0.53766672  0.27929542    -0.01540
C2635       C  0.81448187  0.53508675  0.26264187     0.03450
C2636       C  0.78658697  0.50228321  0.26269687    -0.04420
C2637       C  0.79855418  0.96785301  0.27599506    -0.01530
C2638       C  0.83402403  0.96778833  0.28892991     0.03450
C2639       C  0.86386233  0.57630180  0.28229846     0.38100
C2640       C  0.77341413  0.93267555  0.27887985     0.38090
C2641       C  0.84696091  0.92987604  0.29907739     0.36510
C2642       C  0.81653178  0.56511256  0.24502358     0.36510
N2643       N  0.85574842  0.89904042  0.30682489    -0.38310
N2644       N  0.82147198  0.58912900  0.23122568    -0.38310
N2645       N  0.75603438  0.90345557  0.28271456    -0.37750
N2646       N  0.87696260  0.60826779  0.28408530    -0.37760
C2647       C  0.70902159  0.50421147  0.26845893    -0.04420
C2648       C  0.66701027  0.50751601  0.26237363    -0.01540
C2649       C  0.63627574  0.50415261  0.27881183     0.03450
C2650       C  0.64623241  0.49538695  0.30112978    -0.04420
C2651       C  0.68643789  0.99493634  0.30776853    -0.01530
C2652       C  0.71661120  0.00508941  0.29236228     0.03450
C2653       C  0.65357261  0.51434715  0.23960750     0.38100
C2654       C  0.69655025  0.98757441  0.33120275     0.38090
C2655       C  0.75074125  0.02483041  0.30260443     0.36510
C2656       C  0.59402288  0.50849090  0.27270673     0.36510
N2657       N  0.77593709  0.04133419  0.31218184    -0.38310
N2658       N  0.56037409  0.51203324  0.26789729    -0.38310
N2659       N  0.70447723  0.98171145  0.34981945    -0.37750
N2660       N  0.63964534  0.52070442  0.22216209    -0.37760
C2661       C  0.73661286  0.53817910  0.23287437    -0.04420
C2662       C  0.73135042  0.53246655  0.20898720    -0.01540
C2663       C  0.73726155  0.56430648  0.19390627     0.03450
C2664       C  0.73938624  0.60371172  0.20175602    -0.04420
C2665       C  0.73443305  0.61150607  0.22469756    -0.01530
C2666       C  0.73258744  0.57922109  0.24026551     0.03450
C2667       C  0.71291297  0.49721073  0.19910812     0.38100
C2668       C  0.73365106  0.65296140  0.23237325     0.38090
C2669       C  0.72821124  0.58975059  0.26367508     0.36510
C2670       C  0.73964239  0.55656160  0.16991251     0.36510
N2671       N  0.72393892  0.60075894  0.28191357    -0.38310
N2672       N  0.74162627  0.55048991  0.15085081    -0.38310
N2673       N  0.73306791  0.68600929  0.23844850    -0.37750
N2674       N  0.69734991  0.47044976  0.19041063    -0.37760
C2675       C  0.75043834  0.89482475  0.20527097    -0.04420
C2676       C  0.72205344  0.89506722  0.22266967    -0.01540
C2677       C  0.71898504  0.92807374  0.23759150     0.03450
C2678       C  0.74693388  0.96101401  0.23615168    -0.04420
C2679       C  0.78009046  0.95556657  0.22059130    -0.01530
C2680       C  0.78089113  0.92370537  0.20511450     0.03450
C2681       C  0.69820008  0.85924357  0.22635039     0.38100
C2682       C  0.81287578  0.98383923  0.21830381     0.38090
C2683       C  0.81253270  0.92227864  0.18813125     0.36510
C2684       C  0.68832533  0.92445388  0.25475300     0.36510
N2685       N  0.83781966  0.92142551  0.17474957    -0.38310
N2686       N  0.66393163  0.91831696  0.26818903    -0.38310
N2687       N  0.84073437  0.00352271  0.21480357    -0.37750
N2688       N  0.68027751  0.83023595  0.22981120    -0.37760
loop_ 
_geom_bond_atom_site_label_1 
_geom_bond_atom_site_label_2 
_geom_bond_distance 
_geom_bond_site_symmetry_2 
_ccdc_geom_bond_type 
C1          C662   1.594       .  S
C1         C1292   1.595       .  S
C1         C1303   1.603       .  S
C1         C1317   1.601       .  S
C2          C575   1.520       .  S
C2          C603   1.522   1_554  S
C2         C1347   1.390       .  D
C3          C561   1.519       .  S
C3          C589   1.520   1_554  S
C3         C1346   1.390   1_455  D
C4          C550   1.605       .  S
C4         C1177   1.609       .  S
C4         C1191   1.623       .  S
C4         C1205   1.587       .  S
C5          C449   1.603       .  S
C5          C463   1.603       .  S
C5          C491   1.602       .  S
C5         C1821   1.600       .  S
C6          C407   1.531       .  S
C6          C435   1.515   1_554  S
C6          C679   1.394       .  D
C7          C396   1.523       .  S
C7          C421   1.521   1_554  S
C7          C678   1.394   1_545  D
C8           N26   1.353       .  A
C8           C45   1.474       .  S
C8          C438   1.511       .  S
N9           N26   1.325       .  A
N9           N31   1.318       .  A
N9          Co46   2.089       .  S
C10          N35   1.337       .  A
C10          C48   1.456       .  S
C10          H55   1.081       .  S
H11          C52   1.081       .  S
C12          N36   1.337       .  A
C12          C16   1.463       .  S
C12          H41   1.081       .  S
Co13         N31   2.098       .  S
Co13         N21   2.102       .  S
Co13         N53   2.092       .  S
Co13         N29   2.077       .  S
Co13        Cl57   2.452       .  S
N14          C52   1.337       .  A
N14          N21   1.322       .  A
N14         Co15   2.077       .  S
Co15         N18   2.089       .  S
Co15         N35   2.067       .  S
Co15         N22   2.075       .  S
Co15        Cl57   2.447       .  S
C16          N54   1.353       .  A
C16         C424   1.496       .  S
N17          N24   1.320       .  A
N17          N47   1.325       .  A
N17         Co50   2.086       .  S
N18          N36   1.318       .  A
N18          N54   1.326       .  A
N19          C48   1.350       .  A
N19          N29   1.323       .  A
H20          C45   1.079       .  S
N21          N42   1.326       .  A
N22          N40   1.316       .  A
N22          N27   1.322       .  A
C23          N27   1.350       .  A
C23          C51   1.465       .  S
C23         C536   1.496       .  S
N24          C39   1.337       .  A
N24         Co46   2.089       .  S
C25          N53   1.344       .  A
C25          C28   1.463       .  S
C25          H59   1.081       .  S
C28          N49   1.352       .  A
C28         C547   1.482       .  S
N29          N35   1.317       .  A
N30          C56   1.337       .  A
N30          N32   1.316       .  A
N30         Co46   2.068       .  S
N31          C45   1.343       .  A
N32          N60   1.323       .  A
N32         Co50   2.077       .  S
H33          C56   1.081       .  S
H34          C51   1.080       .  S
N36         Co50   2.078       .  S
N37          N49   1.324       .  A
N37          N53   1.318       .  A
N37         Co46   2.087       .  S
C38          N42   1.355       .  A
C38          C52   1.458       .  S
C38         C592   1.493       .  S
C39          C58   1.462       .  S
C39          H43   1.074       .  S
N40          C51   1.338       .  A
N40         Co50   2.075       .  S
C44          N60   1.350       .  A
C44          C56   1.460       .  S
C44         C494   1.490       .  S
Co46        Cl57   2.449       .  S
N47          C58   1.352       .  A
C48         C480   1.483       .  S
Co50        Cl57   2.453       .  S
C58         C606   1.495       .  S
C61          N79   1.344       .  A
C61          C98   1.462       .  S
C61         C659   1.483       .  S
N62          N79   1.317       .  A
N62          N84   1.316       .  A
N62         Co99   2.060       .  S
C63          N88   1.335       .  A
C63         C101   1.458       .  S
C63         H108   1.081       .  S
H64         C105   1.077       .  S
C65          N89   1.341       .  A
C65          C69   1.457       .  S
C65          H94   1.081       .  S
Co66         N84   2.078       .  S
Co66         N74   2.081       .  S
Co66        N106   2.087       .  S
Co66         N82   2.107       .  S
Co66       Cl110   2.457       .  S
N67         C105   1.332       .  A
N67          N74   1.315       .  A
N67         Co68   2.075       .  S
Co68         N71   2.078       .  S
Co68         N88   2.070       .  S
Co68         N75   2.100       .  S
Co68       Cl110   2.446       .  S
C69         N107   1.347       .  A
C69         C648   1.471       .  S
N70          N77   1.316       .  A
N70         N100   1.324       .  A
N70        Co103   2.079       .  S
N71          N89   1.318       .  A
N71         N107   1.322       .  A
N72         C101   1.356       .  A
N72          N82   1.328       .  A
H73          C98   1.080       .  S
N74          N95   1.327       .  A
N75          N93   1.321       .  A
N75          N80   1.329       .  A
C76          N80   1.355       .  A
C76         C104   1.461       .  S
C76         C393   1.497       .  S
N77          C92   1.339       .  A
N77         Co99   2.073       .  S
C78         N106   1.338       .  A
C78          C81   1.462       .  S
C78         H112   1.082       .  S
C81         N102   1.352       .  A
C81         C410   1.492       .  S
N82          N88   1.321       .  A
N83         C109   1.335       .  A
N83          N85   1.320       .  A
N83         Co99   2.073       .  S
N84          C98   1.342       .  A
N85         N113   1.328       .  A
N85        Co103   2.103       .  S
H86         C109   1.081       .  S
H87         C104   1.082       .  S
N89        Co103   2.079       .  S
N90         N102   1.328       .  A
N90         N106   1.321       .  A
N90         Co99   2.094       .  S
C91          N95   1.353       .  A
C91         C105   1.466       .  S
C91         C368   1.501       .  S
C92         C111   1.456       .  S
C92          H96   1.081       .  S
N93         C104   1.337       .  A
N93        Co103   2.082       .  S
C97         N113   1.356       .  A
C97         C109   1.458       .  S
C97         C578   1.495       .  S
Co99       Cl110   2.441       .  S
N100        C111   1.350       .  A
C101        C564   1.495       .  S
Co103      Cl110   2.454       .  S
C111        C379   1.476       .  S
C114        N804   1.358       .  A
C114        C151   1.469   1_565  S
C114        C522   1.512       .  S
N115        N132   1.329       .  A
N115        N809   1.318       .  A
N115       Co152   2.095       .  S
C116        N141   1.333       .  A
C116        C154   1.468       .  S
C116        H161   1.075       .  S
H117        C158   1.081       .  S
C118        N142   1.345       .  A
C118        C794   1.463       .  S
C118        H147   1.081       .  S
Co119       N137   2.093       .  S
Co119       N127   2.077       .  S
Co119       N159   2.091       .  S
Co119       N135   2.108       .  S
Co119     Cl1507   2.443   1_545  S
N120        C158   1.338       .  A
N120       N1471   1.319       .  A
N120       Co121   2.077       .  S
Co121       N124   2.083       .  S
Co121       N141   2.073       .  S
Co121       N128   2.091       .  S
Co121      Cl163   2.452   1_545  S
C122        N160   1.351   1_565  A
C122        C508   1.494       .  S
C122        C790   1.463       .  S
N123        N153   1.319       .  A
N123       N1474   1.320       .  A
N123       Co156   2.060       .  S
N124        N160   1.323       .  A
N124        N814   1.318   1_545  A
N125       C1498   1.361   1_455  A
N125        N135   1.329       .  A
H126        C151   1.079       .  S
N127        N148   1.322       .  A
N127       N1464   1.319   1_455  A
N128        N133   1.323       .  A
N128        N818   1.315   1_545  A
C129        N133   1.357   1_565  A
C129        C326   1.511       .  S
C129        C829   1.471       .  S
N130        C145   1.342       .  A
N130       N1467   1.320   1_455  A
N130       Co152   2.094       .  S
C131        N159   1.339       .  A
C131        C134   1.470   1_545  S
C131        H165   1.080       .  S
N132        C786   1.358       .  A
C134        N827   1.354       .  A
C134        C312   1.506       .  S
N135       N1485   1.317   1_455  A
N136        C162   1.343       .  A
N136       N1482   1.321   1_455  A
N136       Co152   2.095       .  S
N137        C151   1.337       .  A
N137        N787   1.318   1_545  A
N138        N166   1.324       .  A
N138       N1480   1.321       .  A
N138       Co156   2.084       .  S
H139        C162   1.080       .  S
H140        C157   1.075       .  S
N141       N1479   1.317       .  A
N142        N796   1.318       .  A
N142       Co156   2.086       .  S
N143        N155   1.326       .  A
N143        N831   1.320       .  A
N143       Co152   2.094       .  S
C144       N1492   1.349       .  A
C144        C158   1.462       .  S
C144        C452   1.489       .  S
C145       C1508   1.464       .  S
C145        H149   1.080       .  S
N146        C157   1.338       .  A
N146        N800   1.315       .  A
N146       Co156   2.073       .  S
N148       C1488   1.349   1_455  A
C150        N166   1.350       .  A
C150        C351   1.495       .  S
C150       C1506   1.465       .  S
Co152     Cl2179   2.469       .  S
N153        C164   1.343       .  A
C154       N1469   1.361       .  A
C154        C337   1.515       .  S
N155        C806   1.354       .  A
Co156      Cl835   2.446       .  S
C157        C801   1.471       .  S
N159        N815   1.320   1_545  A
C162       C1494   1.465       .  S
Cl163     Co1463   2.443   1_565  S
Cl163     Co2168   2.469       .  S
Cl163      Co828   2.446       .  S
C164        C466   1.481       .  S
C164       C1489   1.464       .  S
C167       N1529   1.355       .  A
C167        C204   1.453       .  S
C167        C228   1.484       .  S
N168        N185   1.328       .  A
N168       N1534   1.317   1_455  A
N168       Co205   2.101       .  S
C169        N194   1.338       .  A
C169        C207   1.453       .  S
C169        H214   1.081       .  S
H170        C211   1.076       .  S
C171        N195   1.334       .  A
C171       C1519   1.450       .  S
C171        H200   1.080       .  S
Co172       N190   2.075       .  S
Co172       N180   2.086       .  S
Co172       N212   2.106       .  S
Co172       N188   2.104       .  S
Co172      Cl888   2.440       .  S
N173        C211   1.338       .  A
N173        N852   1.313   1_545  A
N173       Co174   2.058       .  S
Co174       N177   2.077       .  S
Co174       N194   2.073       .  S
Co174       N181   2.069       .  S
Co174      Cl216   2.464   1_545  S
C175        N213   1.352       .  A
C175        C239   1.478       .  S
C175       C1515   1.450       .  S
N176        N206   1.321       .  A
N176        N855   1.318   1_545  A
N176       Co209   2.077       .  S
N177        N213   1.324       .  A
N177       N1539   1.316       .  A
N178        C879   1.356       .  A
N178        N188   1.326       .  A
H179        C204   1.076       .  S
N180        N201   1.319       .  A
N180        N845   1.313       .  A
N181        N186   1.324       .  A
N181       N1543   1.321       .  A
C182        N186   1.345       .  A
C182        C256   1.484       .  S
C182       C1554   1.465       .  S
N183        C198   1.342       .  A
N183        N848   1.318       .  A
N183       Co205   2.073       .  S
C184        N212   1.343       .  A
C184        C187   1.471       .  S
C184        H218   1.080       .  S
N185       C1511   1.355   1_455  A
C187       N1552   1.353       .  A
C187        C270   1.506       .  S
N188        N866   1.321       .  A
N189        C215   1.349       .  A
N189        N863   1.321       .  A
N189       Co205   2.113       .  S
N190        C204   1.339       .  A
N190       N1512   1.317       .  A
N191        N219   1.324       .  A
N191        N861   1.321   1_545  A
N191       Co209   2.087       .  S
H192        C215   1.081       .  S
H193        C210   1.077       .  S
N194        N860   1.321   1_545  A
N195       N1521   1.316   1_455  A
N195       Co209   2.058       .  S
N196        N208   1.326       .  A
N196       N1556   1.322   1_455  A
N196       Co205   2.091       .  S
C197        N873   1.353   1_545  A
C197        C211   1.470       .  S
C197        C617   1.506       .  S
C198        C889   1.455       .  S
C198        H202   1.081       .  S
N199        C210   1.339       .  A
N199       N1525   1.321   1_455  A
N199       Co209   2.102       .  S
N201        C869   1.353       .  A
C203        N219   1.351   1_565  A
C203        C281   1.508       .  S
C203        C887   1.473       .  S
Co205     Cl2232   2.464   1_455  S
N206        C217   1.344   1_545  A
C207        N850   1.356   1_545  A
C207        C295   1.481       .  S
N208       C1531   1.353   1_455  A
Co209     Cl1560   2.438   1_445  S
C210       C1526   1.465   1_455  S
N212       N1540   1.322       .  A
C215        C875   1.473       .  S
Cl216      Co844   2.440       .  S
Cl216     Co2221   2.464       .  S
Cl216     Co1553   2.438   1_565  S
C217        C634   1.468       .  S
C217        C870   1.455       .  S
C220        C267   1.523       .  S
C220        C354   1.523       .  S
C220        C221   1.393       .  D
C221        C253   1.530       .  S
C221        C340   1.511       .  S
C222        C298   1.537       .  S
C222        C323   1.508       .  S
C222        C223   1.397       .  D
C223        C284   1.529       .  S
C223        C309   1.519       .  S
C224        C365   1.602       .  S
C224       C1569   1.612   1_455  S
C224       C1586   1.587       .  S
C224       C1726   1.611   1_455  S
C225       C1568   1.612       .  S
C225        C230   1.437       .  A
C225       C1570   1.453       .  A
C226        C227   1.405       .  A
C226       C1569   1.453       .  A
C226        C231   1.455       .  S
C227       C1572   1.396       .  A
C227        C234   1.458   1_655  S
C228        C229   1.410       .  A
C228       C1571   1.396       .  A
C229        C230   1.425       .  A
C229        C232   1.451       .  S
C230        C233   1.451       .  S
C231        N238   1.158       .  T
C232        N237   1.157       .  T
C233        N235   1.158       .  T
C234        N236   1.157       .  T
C239        C244   1.399       .  A
C239       C1584   1.403       .  A
C240        C241   1.406       .  A
C240       C1583   1.403       .  A
C240        C245   1.455       .  S
C241       C1586   1.448       .  A
C241        C248   1.455       .  S
C242       C1568   1.587       .  S
C242        C243   1.443       .  A
C242       C1585   1.448       .  A
C243        C244   1.414       .  A
C243        C246   1.450       .  S
C244        C247   1.453       .  S
C245        N252   1.158       .  T
C246        N251   1.158       .  T
C247        N249   1.157       .  T
C248        N250   1.157       .  T
C253        C258   1.426       .  A
C253       C1598   1.433   1_655  A
C254        C255   1.404       .  A
C254       C1597   1.433       .  A
C254        C259   1.448       .  S
C255        C256   1.398       .  A
C255        C262   1.453       .  S
C256       C1601   1.409       .  A
C257        C258   1.416       .  A
C257       C1600   1.409       .  A
C257        C260   1.450       .  S
C258        C261   1.448       .  S
C259        N266   1.158       .  T
C260        N265   1.157       .  T
C261        N263   1.157       .  T
C262        N264   1.158       .  T
C267        C272   1.419   1_655  A
C267       C1612   1.423       .  A
C268        C269   1.412       .  A
C268       C1611   1.423       .  A
C268        C273   1.452       .  S
C269        C270   1.413       .  A
C269        C276   1.451       .  S
C270       C1615   1.420       .  A
C271        C272   1.420       .  A
C271       C1614   1.420   1_455  A
C271        C274   1.451       .  S
C272        C275   1.451       .  S
C273        N280   1.157       .  T
C274        N279   1.157       .  T
C275        N277   1.157       .  T
C276        N278   1.157       .  T
C281        C286   1.410   1_565  A
C281        C954   1.417       .  A
C282        C283   1.426       .  A
C282        C953   1.417       .  A
C282        C287   1.449       .  S
C283        C284   1.424       .  A
C283        C290   1.449       .  S
C284        C957   1.424       .  A
C285        C286   1.408       .  A
C285        C956   1.424   1_545  A
C285        C288   1.450       .  S
C286        C289   1.448       .  S
C287        N294   1.157       .  T
C288        N293   1.158       .  T
C289        N291   1.155       .  T
C290        N292   1.157       .  T
C295        C300   1.407       .  A
C295        C968   1.399   1_545  A
C296        C297   1.410       .  A
C296        C967   1.399       .  A
C296        C301   1.457       .  S
C297        C298   1.440       .  A
C297        C304   1.449       .  S
C298        C971   1.423       .  A
C299        C300   1.415       .  A
C299        C970   1.423       .  A
C299        C302   1.448       .  S
C300        C303   1.450       .  S
C301        N308   1.158       .  T
C302        N307   1.157       .  T
C303        N305   1.157       .  T
C304        N306   1.158       .  T
C309        C310   1.415       .  A
C309        C986   1.420       .  A
C310        C311   1.413       .  A
C310        C315   1.450       .  S
C311        C984   1.416       .  A
C311        C318   1.449       .  S
C312        C313   1.416   1_565  A
C312        C983   1.416       .  A
C313        C314   1.413       .  A
C313        C316   1.451       .  S
C314        C981   1.420   1_545  A
C314        C317   1.450       .  S
C315        N322   1.157       .  T
C316        N321   1.158       .  T
C317        N319   1.157       .  T
C318        N320   1.157       .  T
C323        C328   1.416       .  A
C323        C996   1.408       .  A
C324        C325   1.404       .  A
C324        C995   1.408       .  A
C324        C329   1.449       .  S
C325        C326   1.417   1_545  A
C325        C332   1.446       .  S
C326        C999   1.424       .  A
C327        C328   1.418       .  A
C327        C998   1.424       .  A
C327        C330   1.449       .  S
C328        C331   1.451       .  S
C329        N336   1.158       .  T
C330        N335   1.158       .  T
C331        N333   1.157       .  T
C332        N334   1.156       .  T
C337        C342   1.418       .  A
C337       C1682   1.423       .  A
C338        C339   1.422       .  A
C338       C1681   1.423   1_455  A
C338        C343   1.450       .  S
C339        C340   1.418   1_455  A
C339        C346   1.450       .  S
C340       C1685   1.409       .  A
C341        C342   1.403       .  A
C341       C1684   1.409       .  A
C341        C344   1.454       .  S
C342        C345   1.442       .  S
C343        N350   1.158       .  T
C344        N349   1.157       .  T
C345        N347   1.156       .  T
C346        N348   1.157       .  T
C351        C356   1.413       .  A
C351       C1696   1.410       .  A
C352        C353   1.411       .  A
C352       C1695   1.410       .  A
C352        C357   1.450       .  S
C353        C354   1.422   1_455  A
C353        C360   1.451       .  S
C354       C1699   1.423       .  A
C355        C356   1.414       .  A
C355       C1698   1.423       .  A
C355        C358   1.448       .  S
C356        C359   1.453       .  S
C357        N364   1.157       .  T
C358        N363   1.157       .  T
C359        N361   1.157       .  T
C360        N362   1.157       .  T
C365        C366   1.440       .  A
C365        C370   1.449       .  A
C366        C367   1.416       .  A
C366        C371   1.445       .  S
C367        C368   1.415       .  A
C367        C374   1.449       .  S
C368        C369   1.403       .  A
C369        C370   1.402       .  A
C369        C372   1.451       .  S
C370        C373   1.451       .  S
C371        N378   1.158       .  T
C372        N377   1.157       .  T
C373        N375   1.158       .  T
C374        N376   1.157       .  T
C379        C380   1.395       .  A
C379        C384   1.391       .  A
C380        C381   1.420       .  A
C380        C385   1.455       .  S
C381        C382   1.450       .  A
C381        C388   1.446       .  S
C382       C1568   1.611       .  S
C382        C383   1.458       .  A
C383        C384   1.413       .  A
C383        C386   1.445       .  S
C384        C387   1.463       .  S
C385        N392   1.157       .  T
C386       N1735   1.157       .  T
C387        N389   1.158       .  T
C388        N390   1.157       .  T
N391       C1730   1.157       .  T
C393        C394   1.415       .  A
C393        C398   1.410       .  A
C394        C395   1.419       .  A
C394        C399   1.450       .  S
C395        C396   1.421       .  A
C395        C402   1.450       .  S
C396        C397   1.426       .  A
C397        C398   1.410       .  A
C397        C400   1.451       .  S
C398        C401   1.455       .  S
C399        N406   1.157       .  T
C400        N405   1.157   1_554  T
C401        N403   1.158       .  T
C402        N404   1.157   1_545  T
C407        C408   1.431       .  A
C407        C412   1.424       .  A
C408        C409   1.410       .  A
C408        C413   1.449       .  S
C409        C410   1.406       .  A
C409        C416   1.456       .  S
C410        C411   1.412       .  A
C411        C412   1.419       .  A
C411        C414   1.450       .  S
C412        C415   1.448       .  S
C413        N420   1.157   1_554  T
C414        N419   1.157       .  T
C415        N417   1.157       .  T
C416        N418   1.158       .  T
C421        C422   1.420       .  A
C421        C426   1.422       .  A
C422        C423   1.412       .  A
C422        C427   1.450       .  S
C423        C424   1.415       .  A
C423        C430   1.452       .  S
C424        C425   1.413       .  A
C425        C426   1.413       .  A
C425        C428   1.452       .  S
C426        C429   1.451       .  S
C427        N434   1.157       .  T
C428        N433   1.157       .  T
C429        N431   1.157   1_556  T
C430        N432   1.158       .  T
C435        C436   1.412       .  A
C435        C440   1.417       .  A
C436        C437   1.410       .  A
C436        C441   1.453       .  S
C437        C438   1.420       .  A
C437        C444   1.447       .  S
C438        C439   1.420       .  A
C439        C440   1.418       .  A
C439        C442   1.450       .  S
C440        C443   1.451       .  S
C441        N448   1.157       .  T
C442        N447   1.158       .  T
C443        N445   1.157       .  T
C444        N446   1.156       .  T
C449        C454   1.450       .  A
C449       C1794   1.447       .  A
C450        C451   1.413       .  A
C450       C1793   1.447       .  A
C450        C455   1.454       .  S
C451       C1796   1.405       .  A
C451        C458   1.455       .  S
C452        C453   1.402       .  A
C452       C1795   1.405       .  A
C453        C454   1.412       .  A
C453        C456   1.457       .  S
C454        C457   1.450       .  S
C455        N462   1.157       .  T
C456        N461   1.158       .  T
C457        N459   1.158       .  T
C458        N460   1.158       .  T
C463        C464   1.448       .  A
C463       C1812   1.452       .  A
C464        C465   1.410       .  A
C464        C469   1.453       .  S
C465        C466   1.403       .  A
C465        C472   1.456       .  S
C466       C1811   1.396       .  A
C467        C468   1.409       .  A
C467       C1810   1.396       .  A
C467        C470   1.454       .  S
C468       C1807   1.452   1_455  A
C468        C471   1.451       .  S
C469        N476   1.157       .  T
C470        N475   1.157       .  T
C471        N473   1.158       .  T
C472        N474   1.158       .  T
C477       C1349   1.600   1_455  S
C477        C478   1.448       .  A
C477        C482   1.449       .  A
C478        C479   1.414       .  A
C478        C483   1.451       .  S
C479        C480   1.403       .  A
C479        C486   1.456       .  S
C480        C481   1.401       .  A
C481        C482   1.409       .  A
C481        C484   1.456       .  S
C482        C485   1.454       .  S
C483        N490   1.159       .  T
C484        N489   1.157       .  T
C485       N1831   1.158   1_455  T
C486        N488   1.157       .  T
N487       C1829   1.158       .  T
C491        C492   1.448       .  A
C491        C496   1.448       .  A
C492        C493   1.415       .  A
C492        C497   1.450       .  S
C493        C494   1.404       .  A
C493        C500   1.455       .  S
C494        C495   1.403       .  A
C495        C496   1.411       .  A
C495        C498   1.455       .  S
C496        C499   1.454       .  S
C497        N504   1.158       .  T
C498        N503   1.158       .  T
C499        N501   1.157       .  T
C500        N502   1.157       .  T
C505        C676   1.609       .  S
C505        C510   1.435       .  A
C505       C1178   1.446   1_545  A
C506        C507   1.422       .  A
C506       C1177   1.446       .  A
C506        C511   1.452       .  S
C507       C1180   1.407       .  A
C507        C514   1.453       .  S
C508        C509   1.404   1_565  A
C508       C1179   1.407       .  A
C509        C510   1.408       .  A
C509        C512   1.454       .  S
C510        C513   1.447       .  S
C511        N518   1.158       .  T
C512        N517   1.157       .  T
C513        N515   1.158       .  T
C514        N516   1.157       .  T
C519        C676   1.623       .  S
C519        C520   1.429       .  A
C519       C1196   1.437   1_545  A
C520        C521   1.406       .  A
C520        C525   1.451       .  S
C521        C522   1.411   1_545  A
C521        C528   1.450       .  S
C522       C1195   1.414       .  A
C523        C524   1.421       .  A
C523       C1194   1.414       .  A
C523        C526   1.449       .  S
C524       C1191   1.437       .  A
C524        C527   1.450       .  S
C525        N532   1.158       .  T
C526        N531   1.157       .  T
C527        N529   1.158       .  T
C528        N530   1.158       .  T
C533        C676   1.587       .  S
C533        C534   1.443       .  A
C533        C538   1.442       .  A
C534        C535   1.412       .  A
C534        C539   1.451       .  S
C535        C536   1.406       .  A
C535        C542   1.453       .  S
C536        C537   1.408       .  A
C537        C538   1.413       .  A
C537        C540   1.455       .  S
C538        C541   1.451       .  S
C539        N546   1.158       .  T
C540        N545   1.158       .  T
C541        N543   1.157       .  T
C542        N544   1.157       .  T
C547        C548   1.407       .  A
C547        C552   1.397       .  A
C548        C549   1.422       .  A
C548        C553   1.450       .  S
C549        C550   1.441       .  A
C549        C556   1.454       .  S
C550        C551   1.445       .  A
C551        C552   1.404       .  A
C551        C554   1.452       .  S
C552        C555   1.457       .  S
C553        N560   1.157       .  T
C554        N559   1.158       .  T
C555        N557   1.157       .  T
C556        N558   1.158       .  T
C561        C562   1.421       .  A
C561        C566   1.423       .  A
C562        C563   1.417       .  A
C562        C567   1.450       .  S
C563        C564   1.414       .  A
C563        C570   1.451       .  S
C564        C565   1.413       .  A
C565        C566   1.409       .  A
C565        C568   1.455       .  S
C566        C569   1.452       .  S
C567        N574   1.157   1_455  T
C568        N573   1.158       .  T
C569        N571   1.157   1_554  T
C570        N572   1.157       .  T
C575        C576   1.421       .  A
C575        C580   1.422       .  A
C576        C577   1.417       .  A
C576        C581   1.449       .  S
C577        C578   1.413       .  A
C577        C584   1.451       .  S
C578        C579   1.413       .  A
C579        C580   1.409       .  A
C579        C582   1.454       .  S
C580        C583   1.452       .  S
C581        N588   1.157       .  T
C582        N587   1.158       .  T
C583        N585   1.157   1_554  T
C584        N586   1.157       .  T
C589        C590   1.420       .  A
C589        C594   1.424       .  A
C590        C591   1.414       .  A
C590        C595   1.451       .  S
C591        C592   1.415       .  A
C591        C598   1.451       .  S
C592        C593   1.409       .  A
C593        C594   1.411       .  A
C593        C596   1.452       .  S
C594        C597   1.452       .  S
C595       N1946   1.157   1_455  T
C596        N601   1.157       .  T
C597        N599   1.157   1_556  T
C598        N600   1.157       .  T
N602       C1939   1.157       .  T
C603        C604   1.420       .  A
C603        C608   1.423       .  A
C604        C605   1.414       .  A
C604        C609   1.450       .  S
C605        C606   1.415       .  A
C605        C612   1.451       .  S
C606        C607   1.412       .  A
C607        C608   1.411       .  A
C607        C610   1.453       .  S
C608        C611   1.452       .  S
C609        N616   1.157       .  T
C610        N615   1.157       .  T
C611        N613   1.157   1_556  T
C612        N614   1.157       .  T
C617        C618   1.417       .  A
C617       C1294   1.414   1_545  A
C618        C619   1.417       .  A
C618        C623   1.451       .  S
C619        C620   1.438       .  A
C619        C626   1.450       .  S
C620        C673   1.595       .  S
C620       C1293   1.443   1_545  A
C621        C622   1.408       .  A
C621       C1292   1.443       .  A
C621        C624   1.454       .  S
C622       C1289   1.414       .  A
C622        C625   1.457       .  S
C623        N630   1.158       .  T
C624        N629   1.158       .  T
C625        N627   1.157       .  T
C626        N628   1.158       .  T
C631        C673   1.603       .  S
C631        C632   1.443       .  A
C631       C1308   1.449       .  A
C632        C633   1.419       .  A
C632        C637   1.447       .  S
C633        C634   1.402   1_545  A
C633        C640   1.454       .  S
C634       C1307   1.392       .  A
C635        C636   1.402       .  A
C635       C1306   1.392       .  A
C635        C638   1.458       .  S
C636       C1303   1.449       .  A
C636        C639   1.452       .  S
C637        N644   1.157       .  T
C638        N643   1.157       .  T
C639        N641   1.158       .  T
C640        N642   1.157       .  T
C645        C673   1.601       .  S
C645        C646   1.450       .  A
C645        C650   1.439       .  A
C646        C647   1.403       .  A
C646        C651   1.455   1_545  S
C647        C648   1.394       .  A
C647        C654   1.457       .  S
C648        C649   1.403       .  A
C649        C650   1.419       .  A
C649        C652   1.453       .  S
C650        C653   1.448       .  S
C651        N658   1.158       .  T
C652        N657   1.157       .  T
C653        N655   1.157       .  T
C654        N656   1.157       .  T
C659        C660   1.401       .  A
C659        C664   1.402       .  A
C660        C661   1.417       .  A
C660        C665   1.454       .  S
C661        C662   1.445       .  A
C661        C668   1.448       .  S
C662        C663   1.449       .  A
C663        C664   1.407       .  A
C663        C666   1.452       .  S
C664        C667   1.459       .  S
C665        N672   1.157       .  T
C666        N671   1.157       .  T
C667        N669   1.158       .  T
C668        N670   1.158       .  T
C673       C1334   1.594   1_545  S
C674       C1247   1.520       .  S
C674       C1275   1.522   1_554  S
C674       C2019   1.390       .  D
C675       C1233   1.519       .  S
C675       C1261   1.520   1_554  S
C675       C2018   1.390   1_455  D
C676       C1222   1.605   1_545  S
C677       C1121   1.603       .  S
C677       C1135   1.603       .  S
C677       C2493   1.600       .  S
C677       C1163   1.602       .  S
C678       C1079   1.531       .  S
C678       C1107   1.515   1_554  S
C679       C1068   1.523       .  S
C679       C1093   1.521   1_554  S
C680        N698   1.353       .  A
C680        C717   1.474       .  S
C680       C1110   1.511       .  S
N681        N698   1.325       .  A
N681        N703   1.318       .  A
N681       Co718   2.089       .  S
C682        N707   1.337       .  A
C682        C720   1.456       .  S
C682        H727   1.081       .  S
H683        C724   1.081       .  S
C684        N708   1.337       .  A
C684        C688   1.463       .  S
C684        H713   1.081       .  S
Co685       N703   2.098       .  S
Co685       N693   2.102       .  S
Co685       N725   2.092       .  S
Co685       N701   2.077       .  S
Co685      Cl729   2.452       .  S
N686        C724   1.337       .  A
N686        N693   1.322       .  A
N686       Co687   2.077       .  S
Co687       N690   2.089       .  S
Co687       N707   2.067       .  S
Co687       N694   2.075       .  S
Co687      Cl729   2.447       .  S
C688        N726   1.353       .  A
C688       C1096   1.496       .  S
N689        N696   1.320       .  A
N689        N719   1.325       .  A
N689       Co722   2.086       .  S
N690        N708   1.318       .  A
N690        N726   1.326       .  A
N691        C720   1.350       .  A
N691        N701   1.323       .  A
H692        C717   1.079       .  S
N693        N714   1.326       .  A
N694        N712   1.316       .  A
N694        N699   1.322       .  A
C695        N699   1.350       .  A
C695        C723   1.465       .  S
C695       C1208   1.496       .  S
N696        C711   1.337       .  A
N696       Co718   2.089       .  S
C697        N725   1.344       .  A
C697        C700   1.463       .  S
C697        H731   1.081       .  S
C700        N721   1.352       .  A
C700       C1219   1.482       .  S
N701        N707   1.317       .  A
N702        C728   1.337       .  A
N702        N704   1.316       .  A
N702       Co718   2.068       .  S
N703        C717   1.343       .  A
N704        N732   1.323       .  A
N704       Co722   2.077       .  S
H705        C728   1.081       .  S
H706        C723   1.080       .  S
N708       Co722   2.078       .  S
N709        N721   1.324       .  A
N709        N725   1.318       .  A
N709       Co718   2.087       .  S
C710        N714   1.355       .  A
C710        C724   1.458       .  S
C710       C1264   1.493       .  S
C711        C730   1.462       .  S
C711        H715   1.074       .  S
N712        C723   1.338       .  A
N712       Co722   2.075       .  S
C716        N732   1.350       .  A
C716        C728   1.460       .  S
C716       C1166   1.490       .  S
Co718      Cl729   2.449       .  S
N719        C730   1.352       .  A
C720       C1152   1.483       .  S
Co722      Cl729   2.453       .  S
C730       C1278   1.495       .  S
C733        N751   1.344       .  A
C733        C770   1.462       .  S
C733       C1331   1.483       .  S
N734        N751   1.317       .  A
N734        N756   1.316       .  A
N734       Co771   2.060       .  S
C735        N760   1.335       .  A
C735        C773   1.458       .  S
C735        H780   1.081       .  S
H736        C777   1.077       .  S
C737        N761   1.341       .  A
C737        C741   1.457       .  S
C737        H766   1.081       .  S
Co738       N756   2.078       .  S
Co738       N746   2.081       .  S
Co738       N778   2.087       .  S
Co738       N754   2.107       .  S
Co738      Cl782   2.457       .  S
N739        C777   1.332       .  A
N739        N746   1.315       .  A
N739       Co740   2.075       .  S
Co740       N743   2.078       .  S
Co740       N760   2.070       .  S
Co740       N747   2.100       .  S
Co740      Cl782   2.446       .  S
C741        N779   1.347       .  A
C741       C1320   1.471       .  S
N742        N749   1.316       .  A
N742        N772   1.324       .  A
N742       Co775   2.079       .  S
N743        N761   1.318       .  A
N743        N779   1.322       .  A
N744        C773   1.356       .  A
N744        N754   1.328       .  A
H745        C770   1.080       .  S
N746        N767   1.327       .  A
N747        N765   1.321       .  A
N747        N752   1.329       .  A
C748        N752   1.355       .  A
C748        C776   1.461       .  S
C748       C1065   1.497       .  S
N749        C764   1.339       .  A
N749       Co771   2.073       .  S
C750        N778   1.338       .  A
C750        C753   1.462       .  S
C750        H784   1.082       .  S
C753        N774   1.352       .  A
C753       C1082   1.492       .  S
N754        N760   1.321       .  A
N755        C781   1.335       .  A
N755        N757   1.320       .  A
N755       Co771   2.073       .  S
N756        C770   1.342       .  A
N757        N785   1.328       .  A
N757       Co775   2.103       .  S
H758        C781   1.081       .  S
H759        C776   1.082       .  S
N761       Co775   2.079       .  S
N762        N774   1.328       .  A
N762        N778   1.321       .  A
N762       Co771   2.094       .  S
C763        N767   1.353       .  A
C763        C777   1.466       .  S
C763       C1040   1.501       .  S
C764        C783   1.456       .  S
C764        H768   1.081       .  S
N765        C776   1.337       .  A
N765       Co775   2.082       .  S
C769        N785   1.356       .  A
C769        C781   1.458       .  S
C769       C1250   1.495       .  S
Co771      Cl782   2.441       .  S
N772        C783   1.350       .  A
C773       C1236   1.495       .  S
Co775      Cl782   2.454       .  S
C783       C1051   1.476       .  S
C786        C823   1.469       .  S
C786       C1194   1.512       .  S
N787        N804   1.329       .  A
N787       Co824   2.095       .  S
C788        N813   1.333       .  A
C788        C826   1.468       .  S
C788        H833   1.075       .  S
H789        C830   1.081       .  S
C790        N814   1.345       .  A
C790        H819   1.081       .  S
Co791       N809   2.093       .  S
Co791       N799   2.077       .  S
Co791       N831   2.091       .  S
Co791       N807   2.108       .  S
Co791     Cl2179   2.443       .  S
N792        C830   1.338       .  A
N792       N2143   1.319       .  A
N792       Co793   2.077       .  S
Co793       N796   2.083       .  S
Co793       N813   2.073       .  S
Co793       N800   2.091       .  S
Co793      Cl835   2.452       .  S
C794        N832   1.351       .  A
C794       C1180   1.494       .  S
N795       N2146   1.320       .  A
N795        N825   1.319       .  A
N795       Co828   2.060       .  S
N796        N832   1.323       .  A
N797       C2170   1.361   1_455  A
N797        N807   1.329       .  A
H798        C823   1.079       .  S
N799       N2136   1.319   1_455  A
N799        N820   1.322       .  A
N800        N805   1.323       .  A
C801        N805   1.357       .  A
C801        C998   1.511       .  S
N802        C817   1.342       .  A
N802       N2139   1.320   1_455  A
N802       Co824   2.094       .  S
C803        N831   1.339       .  A
C803        C806   1.470       .  S
C803        H837   1.080       .  S
C806        C984   1.506       .  S
N807       N2157   1.317   1_455  A
N808        C834   1.343       .  A
N808       N2154   1.321   1_455  A
N808       Co824   2.095       .  S
N809        C823   1.337       .  A
N810       N2152   1.321       .  A
N810        N838   1.324       .  A
N810       Co828   2.084       .  S
H811        C834   1.080       .  S
H812        C829   1.075       .  S
N813       N2151   1.317       .  A
N814       Co828   2.086       .  S
N815        N827   1.326       .  A
N815       Co824   2.094       .  S
C816       N2164   1.349       .  A
C816        C830   1.462       .  S
C816       C1124   1.489       .  S
C817       C2180   1.464       .  S
C817        H821   1.080       .  S
N818        C829   1.338       .  A
N818       Co828   2.073       .  S
N820       C2160   1.349   1_455  A
C822        N838   1.350       .  A
C822       C2178   1.465       .  S
C822       C1023   1.495       .  S
Co824     Cl1507   2.469       .  S
N825        C836   1.343       .  A
C826       N2141   1.361       .  A
C826       C1009   1.515       .  S
C834       C2166   1.465       .  S
Cl835     Co2135   2.443       .  S
Cl835     Co1496   2.469       .  S
C836       C2161   1.464       .  S
C836       C1138   1.481       .  S
C839       N2201   1.355       .  A
C839        C876   1.453       .  S
C839        C900   1.484       .  S
N840        N857   1.328       .  A
N840       N2206   1.317   1_455  A
N840       Co877   2.101       .  S
C841        N866   1.338       .  A
C841        C879   1.453       .  S
C841        H886   1.081       .  S
H842        C883   1.076       .  S
C843        N867   1.334       .  A
C843       C2191   1.450       .  S
C843        H872   1.080       .  S
Co844       N862   2.075       .  S
Co844       N852   2.086       .  S
Co844       N884   2.106       .  S
Co844       N860   2.104       .  S
N845        C883   1.338       .  A
N845       Co846   2.058       .  S
Co846       N849   2.077       .  S
Co846       N866   2.073       .  S
Co846       N853   2.069       .  S
Co846      Cl888   2.464       .  S
C847        N885   1.352       .  A
C847       C2187   1.450       .  S
C847        C911   1.478       .  S
N848        N878   1.321       .  A
N848       Co881   2.077       .  S
N849       N2211   1.316       .  A
N849        N885   1.324       .  A
N850        N860   1.326       .  A
H851        C876   1.076       .  S
N852        N873   1.319       .  A
N853       N2215   1.321       .  A
N853        N858   1.324       .  A
C854        N858   1.345       .  A
C854       C2226   1.465       .  S
C854        C928   1.484       .  S
N855        C870   1.342       .  A
N855       Co877   2.073       .  S
C856        N884   1.343       .  A
C856        C859   1.471       .  S
C856        H890   1.080       .  S
N857       C2183   1.355   1_455  A
C859       N2224   1.353       .  A
C859        C942   1.506       .  S
N861        C887   1.349       .  A
N861       Co877   2.113       .  S
N862        C876   1.339       .  A
N862       N2184   1.317       .  A
N863        N891   1.324       .  A
N863       Co881   2.087       .  S
H864        C887   1.081       .  S
H865        C882   1.077       .  S
N867       N2193   1.316   1_455  A
N867       Co881   2.058       .  S
N868        N880   1.326       .  A
N868       N2228   1.322   1_455  A
N868       Co877   2.091       .  S
C869        C883   1.470       .  S
C869       C1289   1.506       .  S
C870        H874   1.081       .  S
N871        C882   1.339       .  A
N871       N2197   1.321   1_455  A
N871       Co881   2.102       .  S
C875        N891   1.351       .  A
C875        C953   1.508       .  S
Co877     Cl1560   2.464   1_455  S
N878        C889   1.344       .  A
C879        C967   1.481       .  S
N880       C2203   1.353   1_455  A
Co881     Cl2232   2.438   1_455  S
C882       C2198   1.465   1_455  S
N884       N2212   1.322       .  A
Cl888     Co1549   2.464       .  S
Cl888     Co2225   2.438       .  S
C889       C1306   1.468       .  S
C892        C939   1.523       .  S
C892       C1026   1.523       .  S
C892        C893   1.393       .  D
C893        C925   1.530       .  S
C893       C1012   1.511       .  S
C894        C970   1.537       .  S
C894        C995   1.508       .  S
C894        C895   1.397       .  D
C895        C956   1.529   1_545  S
C895        C981   1.519   1_545  S
C896       C2241   1.612   1_455  S
C896       C2258   1.587       .  S
C896       C1037   1.602       .  S
C896       C2398   1.611   1_455  S
C897       C2240   1.612       .  S
C897       C2242   1.453       .  A
C897        C902   1.437       .  A
C898       C2241   1.453       .  A
C898        C899   1.405       .  A
C898        C903   1.455       .  S
C899       C2244   1.396       .  A
C899        C906   1.458   1_655  S
C900       C2243   1.396       .  A
C900        C901   1.410       .  A
C901        C902   1.425       .  A
C901        C904   1.451       .  S
C902        C905   1.451       .  S
C903        N910   1.158       .  T
C904        N909   1.157       .  T
C905        N907   1.158       .  T
C906        N908   1.157       .  T
C911       C2256   1.403       .  A
C911        C916   1.399       .  A
C912       C2255   1.403       .  A
C912        C913   1.406       .  A
C912        C917   1.455       .  S
C913       C2258   1.448       .  A
C913        C920   1.455       .  S
C914       C2240   1.587       .  S
C914       C2257   1.448       .  A
C914        C915   1.443       .  A
C915        C916   1.414       .  A
C915        C918   1.450       .  S
C916        C919   1.453       .  S
C917        N924   1.158       .  T
C918        N923   1.158       .  T
C919        N921   1.157       .  T
C920        N922   1.157       .  T
C925       C2270   1.433   1_655  A
C925        C930   1.426       .  A
C926       C2269   1.433       .  A
C926        C927   1.404       .  A
C926        C931   1.448       .  S
C927        C928   1.398       .  A
C927        C934   1.453       .  S
C928       C2273   1.409       .  A
C929       C2272   1.409       .  A
C929        C930   1.416       .  A
C929        C932   1.450       .  S
C930        C933   1.448       .  S
C931        N938   1.158       .  T
C932        N937   1.157       .  T
C933        N935   1.157       .  T
C934        N936   1.158       .  T
C939       C2284   1.423       .  A
C939        C944   1.419   1_655  A
C940       C2283   1.423       .  A
C940        C941   1.412       .  A
C940        C945   1.452       .  S
C941        C942   1.413       .  A
C941        C948   1.451       .  S
C942       C2287   1.420       .  A
C943       C2286   1.420   1_455  A
C943        C944   1.420       .  A
C943        C946   1.451       .  S
C944        C947   1.451       .  S
C945        N952   1.157       .  T
C946        N951   1.157       .  T
C947        N949   1.157       .  T
C948        N950   1.157       .  T
C953        C958   1.410       .  A
C954        C955   1.426       .  A
C954        C959   1.449       .  S
C955        C956   1.424       .  A
C955        C962   1.449       .  S
C957        C958   1.408       .  A
C957        C960   1.450       .  S
C958        C961   1.448       .  S
C959        N966   1.157       .  T
C960        N965   1.158       .  T
C961        N963   1.155       .  T
C962        N964   1.157       .  T
C967        C972   1.407       .  A
C968        C969   1.410       .  A
C968        C973   1.457       .  S
C969        C970   1.440   1_565  A
C969        C976   1.449       .  S
C971        C972   1.415       .  A
C971        C974   1.448       .  S
C972        C975   1.450       .  S
C973        N980   1.158       .  T
C974        N979   1.157       .  T
C975        N977   1.157       .  T
C976        N978   1.158       .  T
C981        C982   1.415       .  A
C982        C983   1.413       .  A
C982        C987   1.450       .  S
C983        C990   1.449       .  S
C984        C985   1.416       .  A
C985        C986   1.413       .  A
C985        C988   1.451       .  S
C986        C989   1.450       .  S
C987        N994   1.157       .  T
C988        N993   1.158       .  T
C989        N991   1.157       .  T
C990        N992   1.157       .  T
C995       C1000   1.416   1_545  A
C996        C997   1.404       .  A
C996       C1001   1.449       .  S
C997        C998   1.417       .  A
C997       C1004   1.446       .  S
C999       C1000   1.418       .  A
C999       C1002   1.449       .  S
C1000      C1003   1.451       .  S
C1001      N1008   1.158       .  T
C1002      N1007   1.158       .  T
C1003      N1005   1.157       .  T
C1004      N1006   1.156       .  T
C1009      C2354   1.423       .  A
C1009      C1014   1.418       .  A
C1010      C2353   1.423   1_455  A
C1010      C1011   1.422       .  A
C1010      C1015   1.450       .  S
C1011      C1012   1.418   1_455  A
C1011      C1018   1.450       .  S
C1012      C2357   1.409       .  A
C1013      C2356   1.409       .  A
C1013      C1014   1.403       .  A
C1013      C1016   1.454       .  S
C1014      C1017   1.442       .  S
C1015      N1022   1.158       .  T
C1016      N1021   1.157       .  T
C1017      N1019   1.156       .  T
C1018      N1020   1.157       .  T
C1023      C2368   1.410       .  A
C1023      C1028   1.413       .  A
C1024      C2367   1.410       .  A
C1024      C1025   1.411       .  A
C1024      C1029   1.450       .  S
C1025      C1026   1.422   1_455  A
C1025      C1032   1.451       .  S
C1026      C2371   1.423       .  A
C1027      C2370   1.423       .  A
C1027      C1028   1.414       .  A
C1027      C1030   1.448       .  S
C1028      C1031   1.453       .  S
C1029      N1036   1.157       .  T
C1030      N1035   1.157       .  T
C1031      N1033   1.157       .  T
C1032      N1034   1.157       .  T
C1037      C1038   1.440       .  A
C1037      C1042   1.449       .  A
C1038      C1039   1.416       .  A
C1038      C1043   1.445       .  S
C1039      C1040   1.415       .  A
C1039      C1046   1.449       .  S
C1040      C1041   1.403       .  A
C1041      C1042   1.402       .  A
C1041      C1044   1.451       .  S
C1042      C1045   1.451       .  S
C1043      N1050   1.158       .  T
C1044      N1049   1.157       .  T
C1045      N1047   1.158       .  T
C1046      N1048   1.157       .  T
C1051      C1052   1.395       .  A
C1051      C1056   1.391       .  A
C1052      C1053   1.420       .  A
C1052      C1057   1.455       .  S
C1053      C1054   1.450       .  A
C1053      C1060   1.446       .  S
C1054      C2240   1.611       .  S
C1054      C1055   1.458       .  A
C1055      C1056   1.413       .  A
C1055      C1058   1.445       .  S
C1056      C1059   1.463       .  S
C1057      N1064   1.157       .  T
C1058      N2407   1.157       .  T
C1059      N1061   1.158       .  T
C1060      N1062   1.157       .  T
N1063      C2402   1.157       .  T
C1065      C1066   1.415       .  A
C1065      C1070   1.410       .  A
C1066      C1067   1.419       .  A
C1066      C1071   1.450       .  S
C1067      C1068   1.421       .  A
C1067      C1074   1.450       .  S
C1068      C1069   1.426       .  A
C1069      C1070   1.410       .  A
C1069      C1072   1.451       .  S
C1070      C1073   1.455       .  S
C1071      N1078   1.157       .  T
C1072      N1077   1.157   1_554  T
C1073      N1075   1.158       .  T
C1074      N1076   1.157       .  T
C1079      C1080   1.431       .  A
C1079      C1084   1.424       .  A
C1080      C1081   1.410       .  A
C1080      C1085   1.449       .  S
C1081      C1082   1.406       .  A
C1081      C1088   1.456       .  S
C1082      C1083   1.412       .  A
C1083      C1084   1.419       .  A
C1083      C1086   1.450       .  S
C1084      C1087   1.448       .  S
C1085      N1092   1.157   1_554  T
C1086      N1091   1.157       .  T
C1087      N1089   1.157   1_565  T
C1088      N1090   1.158       .  T
C1093      C1094   1.420       .  A
C1093      C1098   1.422       .  A
C1094      C1095   1.412       .  A
C1094      C1099   1.450       .  S
C1095      C1096   1.415       .  A
C1095      C1102   1.452       .  S
C1096      C1097   1.413       .  A
C1097      C1098   1.413       .  A
C1097      C1100   1.452       .  S
C1098      C1101   1.451       .  S
C1099      N1106   1.157       .  T
C1100      N1105   1.157       .  T
C1101      N1103   1.157   1_556  T
C1102      N1104   1.158       .  T
C1107      C1108   1.412       .  A
C1107      C1112   1.417       .  A
C1108      C1109   1.410       .  A
C1108      C1113   1.453       .  S
C1109      C1110   1.420       .  A
C1109      C1116   1.447       .  S
C1110      C1111   1.420       .  A
C1111      C1112   1.418       .  A
C1111      C1114   1.450       .  S
C1112      C1115   1.451       .  S
C1113      N1120   1.157       .  T
C1114      N1119   1.158       .  T
C1115      N1117   1.157       .  T
C1116      N1118   1.156       .  T
C1121      C2466   1.447       .  A
C1121      C1126   1.450       .  A
C1122      C2465   1.447       .  A
C1122      C1123   1.413       .  A
C1122      C1127   1.454       .  S
C1123      C2468   1.405       .  A
C1123      C1130   1.455       .  S
C1124      C2467   1.405       .  A
C1124      C1125   1.402       .  A
C1125      C1126   1.412       .  A
C1125      C1128   1.457       .  S
C1126      C1129   1.450       .  S
C1127      N1134   1.157       .  T
C1128      N1133   1.158       .  T
C1129      N1131   1.158       .  T
C1130      N1132   1.158       .  T
C1135      C1136   1.448       .  A
C1135      C2484   1.452       .  A
C1136      C1137   1.410       .  A
C1136      C1141   1.453       .  S
C1137      C1138   1.403       .  A
C1137      C1144   1.456       .  S
C1138      C2483   1.396       .  A
C1139      C2482   1.396       .  A
C1139      C1140   1.409       .  A
C1139      C1142   1.454       .  S
C1140      C2479   1.452   1_455  A
C1140      C1143   1.451       .  S
C1141      N1148   1.157       .  T
C1142      N1147   1.157       .  T
C1143      N1145   1.158       .  T
C1144      N1146   1.158       .  T
C1149      C2021   1.600   1_455  S
C1149      C1150   1.448       .  A
C1149      C1154   1.449       .  A
C1150      C1151   1.414       .  A
C1150      C1155   1.451       .  S
C1151      C1152   1.403       .  A
C1151      C1158   1.456       .  S
C1152      C1153   1.401       .  A
C1153      C1154   1.409       .  A
C1153      C1156   1.456       .  S
C1154      C1157   1.454       .  S
C1155      N1162   1.159       .  T
C1156      N1161   1.157       .  T
C1157      N2503   1.158   1_455  T
C1158      N1160   1.157       .  T
N1159      C2501   1.158       .  T
C1163      C1164   1.448       .  A
C1163      C1168   1.448       .  A
C1164      C1165   1.415       .  A
C1164      C1169   1.450       .  S
C1165      C1166   1.404       .  A
C1165      C1172   1.455       .  S
C1166      C1167   1.403       .  A
C1167      C1168   1.411       .  A
C1167      C1170   1.455       .  S
C1168      C1171   1.454       .  S
C1169      N1176   1.158       .  T
C1170      N1175   1.158       .  T
C1171      N1173   1.157       .  T
C1172      N1174   1.157       .  T
C1177      C1182   1.435       .  A
C1178      C1179   1.422       .  A
C1178      C1183   1.452       .  S
C1179      C1186   1.453       .  S
C1180      C1181   1.404       .  A
C1181      C1182   1.408       .  A
C1181      C1184   1.454       .  S
C1182      C1185   1.447       .  S
C1183      N1190   1.158       .  T
C1184      N1189   1.157       .  T
C1185      N1187   1.158       .  T
C1186      N1188   1.157       .  T
C1191      C1192   1.429       .  A
C1192      C1193   1.406       .  A
C1192      C1197   1.451       .  S
C1193      C1194   1.411       .  A
C1193      C1200   1.450       .  S
C1195      C1196   1.421       .  A
C1195      C1198   1.449       .  S
C1196      C1199   1.450       .  S
C1197      N1204   1.158       .  T
C1198      N1203   1.157       .  T
C1199      N1201   1.158       .  T
C1200      N1202   1.158       .  T
C1205      C1206   1.443       .  A
C1205      C1210   1.442       .  A
C1206      C1207   1.412       .  A
C1206      C1211   1.451       .  S
C1207      C1208   1.406       .  A
C1207      C1214   1.453       .  S
C1208      C1209   1.408       .  A
C1209      C1210   1.413       .  A
C1209      C1212   1.455       .  S
C1210      C1213   1.451       .  S
C1211      N1218   1.158       .  T
C1212      N1217   1.158       .  T
C1213      N1215   1.157       .  T
C1214      N1216   1.157       .  T
C1219      C1220   1.407       .  A
C1219      C1224   1.397       .  A
C1220      C1221   1.422       .  A
C1220      C1225   1.450       .  S
C1221      C1222   1.441       .  A
C1221      C1228   1.454       .  S
C1222      C1223   1.445       .  A
C1223      C1224   1.404       .  A
C1223      C1226   1.452   1_565  S
C1224      C1227   1.457       .  S
C1225      N1232   1.157       .  T
C1226      N1231   1.158       .  T
C1227      N1229   1.157       .  T
C1228      N1230   1.158       .  T
C1233      C1234   1.421       .  A
C1233      C1238   1.423       .  A
C1234      C1235   1.417       .  A
C1234      C1239   1.450       .  S
C1235      C1236   1.414       .  A
C1235      C1242   1.451       .  S
C1236      C1237   1.413       .  A
C1237      C1238   1.409       .  A
C1237      C1240   1.455       .  S
C1238      C1241   1.452       .  S
C1239      N1246   1.157   1_455  T
C1240      N1245   1.158       .  T
C1241      N1243   1.157   1_554  T
C1242      N1244   1.157       .  T
C1247      C1248   1.421       .  A
C1247      C1252   1.422       .  A
C1248      C1249   1.417       .  A
C1248      C1253   1.449       .  S
C1249      C1250   1.413       .  A
C1249      C1256   1.451       .  S
C1250      C1251   1.413       .  A
C1251      C1252   1.409       .  A
C1251      C1254   1.454       .  S
C1252      C1255   1.452       .  S
C1253      N1260   1.157       .  T
C1254      N1259   1.158       .  T
C1255      N1257   1.157   1_554  T
C1256      N1258   1.157       .  T
C1261      C1262   1.420       .  A
C1261      C1266   1.424       .  A
C1262      C1263   1.414       .  A
C1262      C1267   1.451       .  S
C1263      C1264   1.415       .  A
C1263      C1270   1.451       .  S
C1264      C1265   1.409       .  A
C1265      C1266   1.411       .  A
C1265      C1268   1.452       .  S
C1266      C1269   1.452       .  S
C1267      N2618   1.157   1_455  T
C1268      N1273   1.157       .  T
C1269      N1271   1.157   1_556  T
C1270      N1272   1.157       .  T
N1274      C2611   1.157       .  T
C1275      C1276   1.420       .  A
C1275      C1280   1.423       .  A
C1276      C1277   1.414       .  A
C1276      C1281   1.450       .  S
C1277      C1278   1.415       .  A
C1277      C1284   1.451       .  S
C1278      C1279   1.412       .  A
C1279      C1280   1.411       .  A
C1279      C1282   1.453       .  S
C1280      C1283   1.452       .  S
C1281      N1288   1.157       .  T
C1282      N1287   1.157       .  T
C1283      N1285   1.157   1_556  T
C1284      N1286   1.157       .  T
C1289      C1290   1.417       .  A
C1290      C1291   1.417       .  A
C1290      C1295   1.451       .  S
C1291      C1292   1.438       .  A
C1291      C1298   1.450       .  S
C1293      C1294   1.408       .  A
C1293      C1296   1.454       .  S
C1294      C1297   1.457       .  S
C1295      N1302   1.158       .  T
C1296      N1301   1.158       .  T
C1297      N1299   1.157       .  T
C1298      N1300   1.158       .  T
C1303      C1304   1.443       .  A
C1304      C1305   1.419       .  A
C1304      C1309   1.447       .  S
C1305      C1306   1.402       .  A
C1305      C1312   1.454       .  S
C1307      C1308   1.402   1_565  A
C1307      C1310   1.458       .  S
C1308      C1311   1.452       .  S
C1309      N1316   1.157       .  T
C1310      N1315   1.157       .  T
C1311      N1313   1.158       .  T
C1312      N1314   1.157       .  T
C1317      C1318   1.450       .  A
C1317      C1322   1.439       .  A
C1318      C1319   1.403       .  A
C1318      C1323   1.455       .  S
C1319      C1320   1.394       .  A
C1319      C1326   1.457       .  S
C1320      C1321   1.403       .  A
C1321      C1322   1.419       .  A
C1321      C1324   1.453       .  S
C1322      C1325   1.448       .  S
C1323      N1330   1.158       .  T
C1324      N1329   1.157       .  T
C1325      N1327   1.157       .  T
C1326      N1328   1.157       .  T
C1331      C1332   1.401       .  A
C1331      C1336   1.402       .  A
C1332      C1333   1.417       .  A
C1332      C1337   1.454       .  S
C1333      C1334   1.445       .  A
C1333      C1340   1.448       .  S
C1334      C1335   1.449       .  A
C1335      C1336   1.407       .  A
C1335      C1338   1.452       .  S
C1336      C1339   1.459       .  S
C1337      N1344   1.157       .  T
C1338      N1343   1.157   1_565  T
C1339      N1341   1.158       .  T
C1340      N1342   1.158       .  T
C1345      C2636   1.595       .  S
C1345      C2647   1.603       .  S
C1345      C2661   1.601       .  S
C1345      C2006   1.594       .  S
C1346      C1919   1.520       .  S
C1346      C1947   1.522   1_554  S
C1347      C1905   1.519       .  S
C1347      C1933   1.520   1_554  S
C1348      C2521   1.609       .  S
C1348      C2535   1.623       .  S
C1348      C2549   1.587       .  S
C1348      C1894   1.605       .  S
C1349      C1793   1.603   1_655  S
C1349      C1807   1.603       .  S
C1349      C1835   1.602       .  S
C1350      C1751   1.531       .  S
C1350      C1779   1.515   1_554  S
C1350      C2023   1.394       .  D
C1351      C1740   1.523       .  S
C1351      C1765   1.521   1_554  S
C1351      C2022   1.394   1_545  D
C1352      N1370   1.353       .  A
C1352      C1389   1.474       .  S
C1352      C1782   1.511       .  S
N1353      N1370   1.325       .  A
N1353      N1375   1.318       .  A
N1353     Co1390   2.089       .  S
C1354      N1379   1.337       .  A
C1354      C1392   1.456       .  S
C1354      H1399   1.081       .  S
H1355      C1396   1.081       .  S
C1356      N1380   1.337       .  A
C1356      C1360   1.463       .  S
C1356      H1385   1.081       .  S
Co1357     N1375   2.098       .  S
Co1357     N1365   2.102       .  S
Co1357     N1397   2.092       .  S
Co1357     N1373   2.077       .  S
Co1357    Cl1401   2.452       .  S
N1358      C1396   1.337       .  A
N1358      N1365   1.322       .  A
N1358     Co1359   2.077       .  S
Co1359     N1362   2.089       .  S
Co1359     N1379   2.067       .  S
Co1359     N1366   2.075       .  S
Co1359    Cl1401   2.447       .  S
C1360      N1398   1.353       .  A
C1360      C1768   1.496       .  S
N1361      N1368   1.320       .  A
N1361      N1391   1.325       .  A
N1361     Co1394   2.086       .  S
N1362      N1380   1.318       .  A
N1362      N1398   1.326       .  A
N1363      C1392   1.350       .  A
N1363      N1373   1.323       .  A
H1364      C1389   1.079       .  S
N1365      N1386   1.326       .  A
N1366      N1384   1.316       .  A
N1366      N1371   1.322       .  A
C1367      N1371   1.350       .  A
C1367      C1395   1.465       .  S
C1367      C1880   1.496       .  S
N1368      C1383   1.337       .  A
N1368     Co1390   2.089       .  S
C1369      N1397   1.344       .  A
C1369      C1372   1.463       .  S
C1369      H1403   1.081       .  S
C1372      N1393   1.352       .  A
C1372      C1891   1.482       .  S
N1373      N1379   1.317       .  A
N1374      C1400   1.337       .  A
N1374      N1376   1.316       .  A
N1374     Co1390   2.068       .  S
N1375      C1389   1.343       .  A
N1376      N1404   1.323       .  A
N1376     Co1394   2.077       .  S
H1377      C1400   1.081       .  S
H1378      C1395   1.080       .  S
N1380     Co1394   2.078       .  S
N1381      N1393   1.324       .  A
N1381      N1397   1.318       .  A
N1381     Co1390   2.087       .  S
C1382      N1386   1.355       .  A
C1382      C1396   1.458       .  S
C1382      C1936   1.493       .  S
C1383      C1402   1.462       .  S
C1383      H1387   1.074       .  S
N1384      C1395   1.338       .  A
N1384     Co1394   2.075       .  S
C1388      N1404   1.350       .  A
C1388      C1400   1.460       .  S
C1388      C1838   1.490       .  S
Co1390    Cl1401   2.449       .  S
N1391      C1402   1.352       .  A
C1392      C1824   1.483       .  S
Co1394    Cl1401   2.453       .  S
C1402      C1950   1.495       .  S
C1405      N1423   1.344       .  A
C1405      C1442   1.462       .  S
C1405      C2003   1.483       .  S
N1406      N1423   1.317       .  A
N1406      N1428   1.316       .  A
N1406     Co1443   2.060       .  S
C1407      N1432   1.335       .  A
C1407      C1445   1.458       .  S
C1407      H1452   1.081       .  S
H1408      C1449   1.077       .  S
C1409      N1433   1.341       .  A
C1409      C1413   1.457       .  S
C1409      H1438   1.081       .  S
Co1410     N1428   2.078       .  S
Co1410     N1418   2.081       .  S
Co1410     N1450   2.087       .  S
Co1410     N1426   2.107       .  S
Co1410    Cl1454   2.457       .  S
N1411      C1449   1.332       .  A
N1411      N1418   1.315       .  A
N1411     Co1412   2.075       .  S
Co1412     N1415   2.078       .  S
Co1412     N1432   2.070       .  S
Co1412     N1419   2.100       .  S
Co1412    Cl1454   2.446       .  S
C1413      N1451   1.347       .  A
C1413      C1992   1.471       .  S
N1414      N1421   1.316       .  A
N1414      N1444   1.324       .  A
N1414     Co1447   2.079       .  S
N1415      N1433   1.318       .  A
N1415      N1451   1.322       .  A
N1416      C1445   1.356       .  A
N1416      N1426   1.328       .  A
H1417      C1442   1.080       .  S
N1418      N1439   1.327       .  A
N1419      N1437   1.321       .  A
N1419      N1424   1.329       .  A
C1420      N1424   1.355       .  A
C1420      C1448   1.461       .  S
C1420      C1737   1.497       .  S
N1421      C1436   1.339       .  A
N1421     Co1443   2.073       .  S
C1422      N1450   1.338       .  A
C1422      C1425   1.462       .  S
C1422      H1456   1.082       .  S
C1425      N1446   1.352       .  A
C1425      C1754   1.492       .  S
N1426      N1432   1.321       .  A
N1427      C1453   1.335       .  A
N1427      N1429   1.320       .  A
N1427     Co1443   2.073       .  S
N1428      C1442   1.342       .  A
N1429      N1457   1.328       .  A
N1429     Co1447   2.103       .  S
H1430      C1453   1.081       .  S
H1431      C1448   1.082       .  S
N1433     Co1447   2.079       .  S
N1434      N1446   1.328       .  A
N1434      N1450   1.321       .  A
N1434     Co1443   2.094       .  S
C1435      N1439   1.353       .  A
C1435      C1449   1.466       .  S
C1435      C1712   1.501       .  S
C1436      C1455   1.456       .  S
C1436      H1440   1.081       .  S
N1437      C1448   1.337       .  A
N1437     Co1447   2.082       .  S
C1441      N1457   1.356       .  A
C1441      C1453   1.458       .  S
C1441      C1922   1.495       .  S
Co1443    Cl1454   2.441       .  S
N1444      C1455   1.350       .  A
C1445      C1908   1.495       .  S
Co1447    Cl1454   2.454       .  S
C1455      C1723   1.476       .  S
C1458      N2148   1.358       .  A
C1458      C1495   1.469   1_565  S
C1458      C1866   1.512       .  S
N1459      N1476   1.329       .  A
N1459      N2153   1.318       .  A
N1459     Co1496   2.095       .  S
C1460      N1485   1.333       .  A
C1460      C1498   1.468       .  S
C1460      H1505   1.075       .  S
H1461      C1502   1.081       .  S
C1462      N1486   1.345       .  A
C1462      C2138   1.463       .  S
C1462      H1491   1.081       .  S
Co1463     N1481   2.093       .  S
Co1463     N1471   2.077       .  S
Co1463     N1503   2.091       .  S
Co1463     N1479   2.108       .  S
N1464      C1502   1.338       .  A
N1464     Co1465   2.077       .  S
Co1465     N1468   2.083       .  S
Co1465     N1485   2.073       .  S
Co1465     N1472   2.091       .  S
Co1465    Cl1507   2.452   1_645  S
C1466      N1504   1.351   1_565  A
C1466      C2134   1.463       .  S
C1466      C1852   1.494       .  S
N1467      N1497   1.319       .  A
N1467     Co1500   2.060       .  S
N1468      N2158   1.318   1_545  A
N1468      N1504   1.323       .  A
N1469      N1479   1.329       .  A
H1470      C1495   1.079       .  S
N1471      N1492   1.322       .  A
N1472      N2162   1.315   1_545  A
N1472      N1477   1.323       .  A
C1473      N1477   1.357   1_565  A
C1473      C2173   1.471       .  S
C1473      C1670   1.511       .  S
N1474      C1489   1.342       .  A
N1474     Co1496   2.094       .  S
C1475      N1503   1.339       .  A
C1475      C1478   1.470   1_545  S
C1475      H1509   1.080       .  S
N1476      C2130   1.358       .  A
C1478      N2171   1.354       .  A
C1478      C1656   1.506       .  S
N1480      C1506   1.343       .  A
N1480     Co1496   2.095       .  S
N1481      C1495   1.337       .  A
N1481      N2131   1.318   1_545  A
N1482      N1510   1.324       .  A
N1482     Co1500   2.084       .  S
H1483      C1506   1.080       .  S
H1484      C1501   1.075       .  S
N1486      N2140   1.318       .  A
N1486     Co1500   2.086       .  S
N1487      N1499   1.326       .  A
N1487      N2175   1.320       .  A
N1487     Co1496   2.094       .  S
C1488      C1502   1.462       .  S
C1488      C1796   1.489   1_655  S
C1489      H1493   1.080       .  S
N1490      C1501   1.338       .  A
N1490      N2144   1.315       .  A
N1490     Co1500   2.073       .  S
C1494      N1510   1.350   1_455  A
C1494      C1695   1.495       .  S
N1497      C1508   1.343   1_655  A
C1498      C1681   1.515       .  S
N1499      C2150   1.354       .  A
Co1500    Cl2179   2.446   1_655  S
C1501      C2145   1.471       .  S
N1503      N2159   1.320   1_545  A
Cl1507    Co2172   2.446   1_455  S
C1508      C1810   1.481       .  S
C1511      C1548   1.453       .  S
C1511      C1572   1.484       .  S
N1512      N1529   1.328       .  A
N1512     Co1549   2.101       .  S
C1513      N1538   1.338       .  A
C1513      C1551   1.453       .  S
C1513      H1558   1.081       .  S
H1514      C1555   1.076       .  S
C1515      N1539   1.334       .  A
C1515      H1544   1.080       .  S
Co1516     N1534   2.075       .  S
Co1516     N1524   2.086       .  S
Co1516     N1556   2.106       .  S
Co1516     N1532   2.104       .  S
Co1516    Cl2232   2.440       .  S
N1517      C1555   1.338       .  A
N1517      N2196   1.313   1_545  A
N1517     Co1518   2.058       .  S
Co1518     N1521   2.077       .  S
Co1518     N1538   2.073       .  S
Co1518     N1525   2.069       .  S
Co1518    Cl1560   2.464   1_545  S
C1519      N1557   1.352   1_455  A
C1519      C1583   1.478       .  S
N1520      N2199   1.318   1_545  A
N1520      N1550   1.321       .  A
N1520     Co1553   2.077       .  S
N1521      N1557   1.324       .  A
N1522      C2223   1.356       .  A
N1522      N1532   1.326       .  A
H1523      C1548   1.076       .  S
N1524      N2189   1.313       .  A
N1524      N1545   1.319       .  A
N1525      N1530   1.324       .  A
C1526      N1530   1.345       .  A
C1526      C1600   1.484       .  S
N1527      C1542   1.342       .  A
N1527      N2192   1.318       .  A
N1527     Co1549   2.073       .  S
C1528      N1556   1.343       .  A
C1528      C1531   1.471       .  S
C1528      H1562   1.080       .  S
C1531      C1614   1.506       .  S
N1532      N2210   1.321       .  A
N1533      C1559   1.349       .  A
N1533      N2207   1.321       .  A
N1533     Co1549   2.113       .  S
N1534      C1548   1.339       .  A
N1535      N2205   1.321   1_545  A
N1535      N1563   1.324       .  A
N1535     Co1553   2.087       .  S
H1536      C1559   1.081       .  S
H1537      C1554   1.077       .  S
N1538      N2204   1.321   1_545  A
N1539     Co1553   2.058       .  S
N1540      N1552   1.326       .  A
N1540     Co1549   2.091       .  S
C1541      N2217   1.353   1_545  A
C1541      C1555   1.470       .  S
C1541      C1961   1.506       .  S
C1542      C2233   1.455       .  S
C1542      H1546   1.081       .  S
N1543      C1554   1.339       .  A
N1543     Co1553   2.102       .  S
N1545      C2213   1.353       .  A
C1547      N1563   1.351   1_565  A
C1547      C2231   1.473       .  S
C1547      C1625   1.508       .  S
N1550      C1561   1.344   1_545  A
C1551      N2194   1.356   1_545  A
C1551      C1639   1.481       .  S
C1559      C2219   1.473       .  S
Cl1560    Co2188   2.440       .  S
C1561      C2214   1.455       .  S
C1561      C1978   1.468       .  S
C1564      C1611   1.523       .  S
C1564      C1698   1.523       .  S
C1564      C1565   1.393       .  D
C1565      C1597   1.530       .  S
C1565      C1684   1.511       .  S
C1566      C1642   1.537       .  S
C1566      C1667   1.508       .  S
C1566      C1567   1.397       .  D
C1567      C1628   1.529       .  S
C1567      C1653   1.519       .  S
C1568      C1709   1.602       .  S
C1569      C1574   1.437       .  A
C1570      C1571   1.405       .  A
C1570      C1575   1.455       .  S
C1571      C1578   1.458       .  S
C1572      C1573   1.410       .  A
C1573      C1574   1.425       .  A
C1573      C1576   1.451       .  S
C1574      C1577   1.451       .  S
C1575      N1582   1.158       .  T
C1576      N1581   1.157       .  T
C1577      N1579   1.158       .  T
C1578      N1580   1.157       .  T
C1583      C1588   1.399   1_455  A
C1584      C1585   1.406       .  A
C1584      C1589   1.455       .  S
C1585      C1592   1.455       .  S
C1586      C1587   1.443   1_455  A
C1587      C1588   1.414       .  A
C1587      C1590   1.450       .  S
C1588      C1591   1.453       .  S
C1589      N1596   1.158       .  T
C1590      N1595   1.158       .  T
C1591      N1593   1.157       .  T
C1592      N1594   1.157       .  T
C1597      C1602   1.426       .  A
C1598      C1599   1.404       .  A
C1598      C1603   1.448       .  S
C1599      C1600   1.398   1_455  A
C1599      C1606   1.453       .  S
C1601      C1602   1.416       .  A
C1601      C1604   1.450       .  S
C1602      C1605   1.448       .  S
C1603      N1610   1.158       .  T
C1604      N1609   1.157       .  T
C1605      N1607   1.157       .  T
C1606      N1608   1.158       .  T
C1611      C1616   1.419       .  A
C1612      C1613   1.412       .  A
C1612      C1617   1.452       .  S
C1613      C1614   1.413       .  A
C1613      C1620   1.451       .  S
C1615      C1616   1.420       .  A
C1615      C1618   1.451       .  S
C1616      C1619   1.451       .  S
C1617      N1624   1.157       .  T
C1618      N1623   1.157       .  T
C1619      N1621   1.157       .  T
C1620      N1622   1.157       .  T
C1625      C2298   1.417       .  A
C1625      C1630   1.410   1_565  A
C1626      C2297   1.417       .  A
C1626      C1627   1.426       .  A
C1626      C1631   1.449       .  S
C1627      C1628   1.424       .  A
C1627      C1634   1.449       .  S
C1628      C2301   1.424       .  A
C1629      C2300   1.424   1_545  A
C1629      C1630   1.408       .  A
C1629      C1632   1.450       .  S
C1630      C1633   1.448       .  S
C1631      N1638   1.157       .  T
C1632      N1637   1.158       .  T
C1633      N1635   1.155       .  T
C1634      N1636   1.157       .  T
C1639      C2312   1.399   1_545  A
C1639      C1644   1.407       .  A
C1640      C2311   1.399       .  A
C1640      C1641   1.410       .  A
C1640      C1645   1.457       .  S
C1641      C1642   1.440       .  A
C1641      C1648   1.449       .  S
C1642      C2315   1.423       .  A
C1643      C2314   1.423       .  A
C1643      C1644   1.415       .  A
C1643      C1646   1.448       .  S
C1644      C1647   1.450       .  S
C1645      N1652   1.158       .  T
C1646      N1651   1.157       .  T
C1647      N1649   1.157       .  T
C1648      N1650   1.158       .  T
C1653      C1654   1.415       .  A
C1653      C2330   1.420       .  A
C1654      C1655   1.413       .  A
C1654      C1659   1.450       .  S
C1655      C2328   1.416       .  A
C1655      C1662   1.449       .  S
C1656      C2327   1.416       .  A
C1656      C1657   1.416   1_565  A
C1657      C1658   1.413       .  A
C1657      C1660   1.451       .  S
C1658      C2325   1.420   1_545  A
C1658      C1661   1.450       .  S
C1659      N1666   1.157       .  T
C1660      N1665   1.158       .  T
C1661      N1663   1.157       .  T
C1662      N1664   1.157       .  T
C1667      C2340   1.408       .  A
C1667      C1672   1.416       .  A
C1668      C2339   1.408       .  A
C1668      C1669   1.404       .  A
C1668      C1673   1.449       .  S
C1669      C1670   1.417   1_545  A
C1669      C1676   1.446       .  S
C1670      C2343   1.424       .  A
C1671      C2342   1.424       .  A
C1671      C1672   1.418       .  A
C1671      C1674   1.449       .  S
C1672      C1675   1.451       .  S
C1673      N1680   1.158       .  T
C1674      N1679   1.158       .  T
C1675      N1677   1.157       .  T
C1676      N1678   1.156       .  T
C1681      C1686   1.418       .  A
C1682      C1683   1.422       .  A
C1682      C1687   1.450       .  S
C1683      C1684   1.418       .  A
C1683      C1690   1.450       .  S
C1685      C1686   1.403       .  A
C1685      C1688   1.454       .  S
C1686      C1689   1.442       .  S
C1687      N1694   1.158       .  T
C1688      N1693   1.157       .  T
C1689      N1691   1.156       .  T
C1690      N1692   1.157       .  T
C1695      C1700   1.413   1_455  A
C1696      C1697   1.411       .  A
C1696      C1701   1.450       .  S
C1697      C1698   1.422       .  A
C1697      C1704   1.451       .  S
C1699      C1700   1.414       .  A
C1699      C1702   1.448       .  S
C1700      C1703   1.453       .  S
C1701      N1708   1.157       .  T
C1702      N1707   1.157       .  T
C1703      N1705   1.157       .  T
C1704      N1706   1.157       .  T
C1709      C1710   1.440       .  A
C1709      C1714   1.449       .  A
C1710      C1711   1.416       .  A
C1710      C1715   1.445       .  S
C1711      C1712   1.415       .  A
C1711      C1718   1.449       .  S
C1712      C1713   1.403       .  A
C1713      C1714   1.402       .  A
C1713      C1716   1.451       .  S
C1714      C1717   1.451       .  S
C1715      N1722   1.158       .  T
C1716      N1721   1.157       .  T
C1717      N1719   1.158       .  T
C1718      N1720   1.157       .  T
C1723      C1724   1.395       .  A
C1723      C1728   1.391       .  A
C1724      C1725   1.420       .  A
C1724      C1729   1.455       .  S
C1725      C1726   1.450       .  A
C1725      C1732   1.446       .  S
C1726      C1727   1.458       .  A
C1727      C1728   1.413       .  A
C1727      C1730   1.445   1_655  S
C1728      C1731   1.463       .  S
C1729      N1736   1.157       .  T
C1731      N1733   1.158       .  T
C1732      N1734   1.157       .  T
C1737      C1738   1.415       .  A
C1737      C1742   1.410       .  A
C1738      C1739   1.419       .  A
C1738      C1743   1.450       .  S
C1739      C1740   1.421       .  A
C1739      C1746   1.450       .  S
C1740      C1741   1.426       .  A
C1741      C1742   1.410       .  A
C1741      C1744   1.451       .  S
C1742      C1745   1.455       .  S
C1743      N1750   1.157       .  T
C1744      N1749   1.157   1_554  T
C1745      N1747   1.158       .  T
C1746      N1748   1.157   1_545  T
C1751      C1752   1.431       .  A
C1751      C1756   1.424       .  A
C1752      C1753   1.410       .  A
C1752      C1757   1.449       .  S
C1753      C1754   1.406       .  A
C1753      C1760   1.456       .  S
C1754      C1755   1.412       .  A
C1755      C1756   1.419       .  A
C1755      C1758   1.450       .  S
C1756      C1759   1.448       .  S
C1757      N1764   1.157   1_554  T
C1758      N1763   1.157       .  T
C1759      N1761   1.157       .  T
C1760      N1762   1.158       .  T
C1765      C1766   1.420       .  A
C1765      C1770   1.422       .  A
C1766      C1767   1.412       .  A
C1766      C1771   1.450       .  S
C1767      C1768   1.415       .  A
C1767      C1774   1.452       .  S
C1768      C1769   1.413       .  A
C1769      C1770   1.413       .  A
C1769      C1772   1.452       .  S
C1770      C1773   1.451       .  S
C1771      N1778   1.157       .  T
C1772      N1777   1.157       .  T
C1773      N1775   1.157   1_556  T
C1774      N1776   1.158       .  T
C1779      C1780   1.412       .  A
C1779      C1784   1.417       .  A
C1780      C1781   1.410       .  A
C1780      C1785   1.453       .  S
C1781      C1782   1.420       .  A
C1781      C1788   1.447       .  S
C1782      C1783   1.420       .  A
C1783      C1784   1.418       .  A
C1783      C1786   1.450       .  S
C1784      C1787   1.451       .  S
C1785      N1792   1.157       .  T
C1786      N1791   1.158       .  T
C1787      N1789   1.157       .  T
C1788      N1790   1.156       .  T
C1793      C1798   1.450   1_455  A
C1794      C1795   1.413       .  A
C1794      C1799   1.454       .  S
C1795      C1802   1.455       .  S
C1796      C1797   1.402   1_455  A
C1797      C1798   1.412       .  A
C1797      C1800   1.457       .  S
C1798      C1801   1.450       .  S
C1799      N1806   1.157       .  T
C1800      N1805   1.158       .  T
C1801      N1803   1.158       .  T
C1802      N1804   1.158       .  T
C1807      C1808   1.448       .  A
C1808      C1809   1.410       .  A
C1808      C1813   1.453       .  S
C1809      C1810   1.403   1_655  A
C1809      C1816   1.456       .  S
C1811      C1812   1.409       .  A
C1811      C1814   1.454       .  S
C1812      C1815   1.451       .  S
C1813      N1820   1.157       .  T
C1814      N1819   1.157       .  T
C1815      N1817   1.158       .  T
C1816      N1818   1.158       .  T
C1821      C1822   1.448       .  A
C1821      C1826   1.449       .  A
C1822      C1823   1.414       .  A
C1822      C1827   1.451       .  S
C1823      C1824   1.403       .  A
C1823      C1830   1.456       .  S
C1824      C1825   1.401       .  A
C1825      C1826   1.409       .  A
C1825      C1828   1.456       .  S
C1826      C1829   1.454       .  S
C1827      N1834   1.159       .  T
C1828      N1833   1.157       .  T
C1830      N1832   1.157       .  T
C1835      C1836   1.448       .  A
C1835      C1840   1.448       .  A
C1836      C1837   1.415       .  A
C1836      C1841   1.450       .  S
C1837      C1838   1.404       .  A
C1837      C1844   1.455       .  S
C1838      C1839   1.403       .  A
C1839      C1840   1.411       .  A
C1839      C1842   1.455       .  S
C1840      C1843   1.454       .  S
C1841      N1848   1.158       .  T
C1842      N1847   1.158       .  T
C1843      N1845   1.157   1_655  T
C1844      N1846   1.157       .  T
C1849      C2020   1.609       .  S
C1849      C2522   1.446   1_545  A
C1849      C1854   1.435       .  A
C1850      C2521   1.446       .  A
C1850      C1851   1.422       .  A
C1850      C1855   1.452       .  S
C1851      C2524   1.407       .  A
C1851      C1858   1.453       .  S
C1852      C2523   1.407       .  A
C1852      C1853   1.404   1_565  A
C1853      C1854   1.408       .  A
C1853      C1856   1.454       .  S
C1854      C1857   1.447       .  S
C1855      N1862   1.158       .  T
C1856      N1861   1.157       .  T
C1857      N1859   1.158       .  T
C1858      N1860   1.157       .  T
C1863      C2020   1.623       .  S
C1863      C1864   1.429       .  A
C1863      C2540   1.437   1_545  A
C1864      C1865   1.406       .  A
C1864      C1869   1.451       .  S
C1865      C1866   1.411   1_545  A
C1865      C1872   1.450       .  S
C1866      C2539   1.414       .  A
C1867      C2538   1.414       .  A
C1867      C1868   1.421       .  A
C1867      C1870   1.449       .  S
C1868      C2535   1.437       .  A
C1868      C1871   1.450       .  S
C1869      N1876   1.158       .  T
C1870      N1875   1.157       .  T
C1871      N1873   1.158       .  T
C1872      N1874   1.158       .  T
C1877      C2020   1.587       .  S
C1877      C1878   1.443       .  A
C1877      C1882   1.442       .  A
C1878      C1879   1.412       .  A
C1878      C1883   1.451       .  S
C1879      C1880   1.406       .  A
C1879      C1886   1.453       .  S
C1880      C1881   1.408       .  A
C1881      C1882   1.413       .  A
C1881      C1884   1.455       .  S
C1882      C1885   1.451       .  S
C1883      N1890   1.158       .  T
C1884      N1889   1.158       .  T
C1885      N1887   1.157       .  T
C1886      N1888   1.157       .  T
C1891      C1892   1.407       .  A
C1891      C1896   1.397       .  A
C1892      C1893   1.422       .  A
C1892      C1897   1.450       .  S
C1893      C1894   1.441       .  A
C1893      C1900   1.454       .  S
C1894      C1895   1.445       .  A
C1895      C1896   1.404       .  A
C1895      C1898   1.452       .  S
C1896      C1899   1.457       .  S
C1897      N1904   1.157       .  T
C1898      N1903   1.158       .  T
C1899      N1901   1.157       .  T
C1900      N1902   1.158       .  T
C1905      C1906   1.421       .  A
C1905      C1910   1.423       .  A
C1906      C1907   1.417       .  A
C1906      C1911   1.450       .  S
C1907      C1908   1.414       .  A
C1907      C1914   1.451       .  S
C1908      C1909   1.413       .  A
C1909      C1910   1.409       .  A
C1909      C1912   1.455       .  S
C1910      C1913   1.452       .  S
C1911      N1918   1.157       .  T
C1912      N1917   1.158       .  T
C1913      N1915   1.157   1_554  T
C1914      N1916   1.157       .  T
C1919      C1920   1.421       .  A
C1919      C1924   1.422       .  A
C1920      C1921   1.417       .  A
C1920      C1925   1.449       .  S
C1921      C1922   1.413       .  A
C1921      C1928   1.451       .  S
C1922      C1923   1.413       .  A
C1923      C1924   1.409       .  A
C1923      C1926   1.454       .  S
C1924      C1927   1.452       .  S
C1925      N1932   1.157   1_655  T
C1926      N1931   1.158       .  T
C1927      N1929   1.157   1_554  T
C1928      N1930   1.157       .  T
C1933      C1934   1.420       .  A
C1933      C1938   1.424       .  A
C1934      C1935   1.414       .  A
C1934      C1939   1.451       .  S
C1935      C1936   1.415       .  A
C1935      C1942   1.451       .  S
C1936      C1937   1.409       .  A
C1937      C1938   1.411       .  A
C1937      C1940   1.452       .  S
C1938      C1941   1.452       .  S
C1940      N1945   1.157       .  T
C1941      N1943   1.157   1_556  T
C1942      N1944   1.157       .  T
C1947      C1948   1.420       .  A
C1947      C1952   1.423       .  A
C1948      C1949   1.414       .  A
C1948      C1953   1.450       .  S
C1949      C1950   1.415       .  A
C1949      C1956   1.451       .  S
C1950      C1951   1.412       .  A
C1951      C1952   1.411       .  A
C1951      C1954   1.453       .  S
C1952      C1955   1.452       .  S
C1953      N1960   1.157       .  T
C1954      N1959   1.157       .  T
C1955      N1957   1.157   1_556  T
C1956      N1958   1.157       .  T
C1961      C1962   1.417       .  A
C1961      C2638   1.414   1_545  A
C1962      C1963   1.417       .  A
C1962      C1967   1.451       .  S
C1963      C1964   1.438       .  A
C1963      C1970   1.450       .  S
C1964      C2017   1.595       .  S
C1964      C2637   1.443   1_545  A
C1965      C2636   1.443       .  A
C1965      C1966   1.408       .  A
C1965      C1968   1.454       .  S
C1966      C2633   1.414       .  A
C1966      C1969   1.457       .  S
C1967      N1974   1.158       .  T
C1968      N1973   1.158       .  T
C1969      N1971   1.157       .  T
C1970      N1972   1.158       .  T
C1975      C2017   1.603       .  S
C1975      C1976   1.443       .  A
C1975      C2652   1.449       .  A
C1976      C1977   1.419       .  A
C1976      C1981   1.447       .  S
C1977      C1978   1.402   1_545  A
C1977      C1984   1.454       .  S
C1978      C2651   1.392       .  A
C1979      C2650   1.392       .  A
C1979      C1980   1.402       .  A
C1979      C1982   1.458       .  S
C1980      C2647   1.449       .  A
C1980      C1983   1.452       .  S
C1981      N1988   1.157       .  T
C1982      N1987   1.157       .  T
C1983      N1985   1.158       .  T
C1984      N1986   1.157       .  T
C1989      C2017   1.601       .  S
C1989      C1990   1.450       .  A
C1989      C1994   1.439       .  A
C1990      C1991   1.403       .  A
C1990      C1995   1.455   1_545  S
C1991      C1992   1.394       .  A
C1991      C1998   1.457       .  S
C1992      C1993   1.403       .  A
C1993      C1994   1.419       .  A
C1993      C1996   1.453       .  S
C1994      C1997   1.448       .  S
C1995      N2002   1.158       .  T
C1996      N2001   1.157       .  T
C1997      N1999   1.157       .  T
C1998      N2000   1.157       .  T
C2003      C2004   1.401       .  A
C2003      C2008   1.402       .  A
C2004      C2005   1.417       .  A
C2004      C2009   1.454       .  S
C2005      C2006   1.445       .  A
C2005      C2012   1.448       .  S
C2006      C2007   1.449       .  A
C2007      C2008   1.407       .  A
C2007      C2010   1.452       .  S
C2008      C2011   1.459       .  S
C2009      N2016   1.157       .  T
C2010      N2015   1.157       .  T
C2011      N2013   1.158       .  T
C2012      N2014   1.158       .  T
C2017      C2678   1.594   1_545  S
C2018      C2591   1.520       .  S
C2018      C2619   1.522   1_554  S
C2019      C2577   1.519       .  S
C2019      C2605   1.520   1_554  S
C2020      C2566   1.605   1_545  S
C2021      C2465   1.603   1_655  S
C2021      C2479   1.603       .  S
C2021      C2507   1.602       .  S
C2022      C2423   1.531       .  S
C2022      C2451   1.515   1_554  S
C2023      C2412   1.523       .  S
C2023      C2437   1.521   1_554  S
C2024      N2042   1.353       .  A
C2024      C2061   1.474       .  S
C2024      C2454   1.511       .  S
N2025      N2042   1.325       .  A
N2025      N2047   1.318       .  A
N2025     Co2062   2.089       .  S
C2026      N2051   1.337       .  A
C2026      C2064   1.456       .  S
C2026      H2071   1.081       .  S
H2027      C2068   1.081       .  S
C2028      N2052   1.337       .  A
C2028      C2032   1.463       .  S
C2028      H2057   1.081       .  S
Co2029     N2047   2.098       .  S
Co2029     N2037   2.102       .  S
Co2029     N2069   2.092       .  S
Co2029     N2045   2.077       .  S
Co2029    Cl2073   2.452       .  S
N2030      C2068   1.337       .  A
N2030      N2037   1.322       .  A
N2030     Co2031   2.077       .  S
Co2031     N2034   2.089       .  S
Co2031     N2051   2.067       .  S
Co2031     N2038   2.075       .  S
Co2031    Cl2073   2.447       .  S
C2032      N2070   1.353       .  A
C2032      C2440   1.496       .  S
N2033      N2040   1.320       .  A
N2033      N2063   1.325       .  A
N2033     Co2066   2.086       .  S
N2034      N2052   1.318       .  A
N2034      N2070   1.326       .  A
N2035      C2064   1.350       .  A
N2035      N2045   1.323       .  A
H2036      C2061   1.079       .  S
N2037      N2058   1.326       .  A
N2038      N2056   1.316       .  A
N2038      N2043   1.322       .  A
C2039      N2043   1.350       .  A
C2039      C2067   1.465       .  S
C2039      C2552   1.496       .  S
N2040      C2055   1.337       .  A
N2040     Co2062   2.089       .  S
C2041      N2069   1.344       .  A
C2041      C2044   1.463       .  S
C2041      H2075   1.081       .  S
C2044      N2065   1.352       .  A
C2044      C2563   1.482       .  S
N2045      N2051   1.317       .  A
N2046      C2072   1.337       .  A
N2046      N2048   1.316       .  A
N2046     Co2062   2.068       .  S
N2047      C2061   1.343       .  A
N2048      N2076   1.323       .  A
N2048     Co2066   2.077       .  S
H2049      C2072   1.081       .  S
H2050      C2067   1.080       .  S
N2052     Co2066   2.078       .  S
N2053      N2065   1.324       .  A
N2053      N2069   1.318       .  A
N2053     Co2062   2.087       .  S
C2054      N2058   1.355       .  A
C2054      C2068   1.458       .  S
C2054      C2608   1.493       .  S
C2055      C2074   1.462       .  S
C2055      H2059   1.074       .  S
N2056      C2067   1.338       .  A
N2056     Co2066   2.075       .  S
C2060      N2076   1.350       .  A
C2060      C2072   1.460       .  S
C2060      C2510   1.490       .  S
Co2062    Cl2073   2.449       .  S
N2063      C2074   1.352       .  A
C2064      C2496   1.483       .  S
Co2066    Cl2073   2.453       .  S
C2074      C2622   1.495       .  S
C2077      N2095   1.344       .  A
C2077      C2114   1.462       .  S
C2077      C2675   1.483       .  S
N2078      N2095   1.317       .  A
N2078      N2100   1.316       .  A
N2078     Co2115   2.060       .  S
C2079      N2104   1.335       .  A
C2079      C2117   1.458       .  S
C2079      H2124   1.081       .  S
H2080      C2121   1.077       .  S
C2081      N2105   1.341       .  A
C2081      C2085   1.457       .  S
C2081      H2110   1.081       .  S
Co2082     N2100   2.078       .  S
Co2082     N2090   2.081       .  S
Co2082     N2122   2.087       .  S
Co2082     N2098   2.107       .  S
Co2082    Cl2126   2.457       .  S
N2083      C2121   1.332       .  A
N2083      N2090   1.315       .  A
N2083     Co2084   2.075       .  S
Co2084     N2087   2.078       .  S
Co2084     N2104   2.070       .  S
Co2084     N2091   2.100       .  S
Co2084    Cl2126   2.446       .  S
C2085      N2123   1.347       .  A
C2085      C2664   1.471       .  S
N2086      N2093   1.316       .  A
N2086      N2116   1.324       .  A
N2086     Co2119   2.079       .  S
N2087      N2105   1.318       .  A
N2087      N2123   1.322       .  A
N2088      C2117   1.356       .  A
N2088      N2098   1.328       .  A
H2089      C2114   1.080       .  S
N2090      N2111   1.327       .  A
N2091      N2109   1.321       .  A
N2091      N2096   1.329       .  A
C2092      N2096   1.355       .  A
C2092      C2120   1.461       .  S
C2092      C2409   1.497       .  S
N2093      C2108   1.339       .  A
N2093     Co2115   2.073       .  S
C2094      N2122   1.338       .  A
C2094      C2097   1.462       .  S
C2094      H2128   1.082       .  S
C2097      N2118   1.352       .  A
C2097      C2426   1.492       .  S
N2098      N2104   1.321       .  A
N2099      C2125   1.335       .  A
N2099      N2101   1.320       .  A
N2099     Co2115   2.073       .  S
N2100      C2114   1.342       .  A
N2101      N2129   1.328       .  A
N2101     Co2119   2.103       .  S
H2102      C2125   1.081       .  S
H2103      C2120   1.082       .  S
N2105     Co2119   2.079       .  S
N2106      N2118   1.328       .  A
N2106      N2122   1.321       .  A
N2106     Co2115   2.094       .  S
C2107      N2111   1.353       .  A
C2107      C2121   1.466       .  S
C2107      C2384   1.501       .  S
C2108      C2127   1.456       .  S
C2108      H2112   1.081       .  S
N2109      C2120   1.337       .  A
N2109     Co2119   2.082       .  S
C2113      N2129   1.356       .  A
C2113      C2125   1.458       .  S
C2113      C2594   1.495       .  S
Co2115    Cl2126   2.441       .  S
N2116      C2127   1.350       .  A
C2117      C2580   1.495       .  S
Co2119    Cl2126   2.454       .  S
C2127      C2395   1.476       .  S
C2130      C2167   1.469       .  S
C2130      C2538   1.512       .  S
N2131      N2148   1.329       .  A
N2131     Co2168   2.095       .  S
C2132      N2157   1.333       .  A
C2132      C2170   1.468       .  S
C2132      H2177   1.075       .  S
H2133      C2174   1.081       .  S
C2134      N2158   1.345       .  A
C2134      H2163   1.081       .  S
Co2135     N2153   2.093       .  S
Co2135     N2143   2.077       .  S
Co2135     N2175   2.091       .  S
Co2135     N2151   2.108       .  S
N2136      C2174   1.338       .  A
N2136     Co2137   2.077       .  S
Co2137     N2140   2.083       .  S
Co2137     N2157   2.073       .  S
Co2137     N2144   2.091       .  S
Co2137    Cl2179   2.452   1_655  S
C2138      N2176   1.351       .  A
C2138      C2524   1.494       .  S
N2139      N2169   1.319       .  A
N2139     Co2172   2.060       .  S
N2140      N2176   1.323       .  A
N2141      N2151   1.329       .  A
H2142      C2167   1.079       .  S
N2143      N2164   1.322       .  A
N2144      N2149   1.323       .  A
C2145      N2149   1.357       .  A
C2145      C2342   1.511       .  S
N2146      C2161   1.342       .  A
N2146     Co2168   2.094       .  S
C2147      N2175   1.339       .  A
C2147      C2150   1.470       .  S
C2147      H2181   1.080       .  S
C2150      C2328   1.506       .  S
N2152      C2178   1.343       .  A
N2152     Co2168   2.095       .  S
N2153      C2167   1.337       .  A
N2154      N2182   1.324       .  A
N2154     Co2172   2.084       .  S
H2155      C2178   1.080       .  S
H2156      C2173   1.075       .  S
N2158     Co2172   2.086       .  S
N2159      N2171   1.326       .  A
N2159     Co2168   2.094       .  S
C2160      C2174   1.462       .  S
C2160      C2468   1.489   1_655  S
C2161      H2165   1.080       .  S
N2162      C2173   1.338       .  A
N2162     Co2172   2.073       .  S
C2166      N2182   1.350   1_455  A
C2166      C2367   1.495       .  S
N2169      C2180   1.343   1_655  A
C2170      C2353   1.515       .  S
C2180      C2482   1.481       .  S
C2183      C2220   1.453       .  S
C2183      C2244   1.484       .  S
N2184      N2201   1.328       .  A
N2184     Co2221   2.101       .  S
C2185      N2210   1.338       .  A
C2185      C2223   1.453       .  S
C2185      H2230   1.081       .  S
H2186      C2227   1.076       .  S
C2187      N2211   1.334       .  A
C2187      H2216   1.080       .  S
Co2188     N2206   2.075       .  S
Co2188     N2196   2.086       .  S
Co2188     N2228   2.106       .  S
Co2188     N2204   2.104       .  S
N2189      C2227   1.338       .  A
N2189     Co2190   2.058       .  S
Co2190     N2193   2.077       .  S
Co2190     N2210   2.073       .  S
Co2190     N2197   2.069       .  S
Co2190    Cl2232   2.464       .  S
C2191      N2229   1.352   1_455  A
C2191      C2255   1.478       .  S
N2192      N2222   1.321       .  A
N2192     Co2225   2.077       .  S
N2193      N2229   1.324       .  A
N2194      N2204   1.326       .  A
H2195      C2220   1.076       .  S
N2196      N2217   1.319       .  A
N2197      N2202   1.324       .  A
C2198      N2202   1.345       .  A
C2198      C2272   1.484       .  S
N2199      C2214   1.342       .  A
N2199     Co2221   2.073       .  S
C2200      N2228   1.343       .  A
C2200      C2203   1.471       .  S
C2200      H2234   1.080       .  S
C2203      C2286   1.506       .  S
N2205      C2231   1.349       .  A
N2205     Co2221   2.113       .  S
N2206      C2220   1.339       .  A
N2207      N2235   1.324       .  A
N2207     Co2225   2.087       .  S
H2208      C2231   1.081       .  S
H2209      C2226   1.077       .  S
N2211     Co2225   2.058       .  S
N2212      N2224   1.326       .  A
N2212     Co2221   2.091       .  S
C2213      C2227   1.470       .  S
C2213      C2633   1.506       .  S
C2214      H2218   1.081       .  S
N2215      C2226   1.339       .  A
N2215     Co2225   2.102       .  S
C2219      N2235   1.351       .  A
C2219      C2297   1.508       .  S
N2222      C2233   1.344       .  A
C2223      C2311   1.481       .  S
C2233      C2650   1.468       .  S
C2236      C2283   1.523       .  S
C2236      C2370   1.523       .  S
C2236      C2237   1.393       .  D
C2237      C2269   1.530       .  S
C2237      C2356   1.511       .  S
C2238      C2314   1.537       .  S
C2238      C2339   1.508       .  S
C2238      C2239   1.397       .  D
C2239      C2300   1.529   1_545  S
C2239      C2325   1.519   1_545  S
C2240      C2381   1.602       .  S
C2241      C2246   1.437       .  A
C2242      C2243   1.405       .  A
C2242      C2247   1.455       .  S
C2243      C2250   1.458       .  S
C2244      C2245   1.410       .  A
C2245      C2246   1.425       .  A
C2245      C2248   1.451       .  S
C2246      C2249   1.451       .  S
C2247      N2254   1.158       .  T
C2248      N2253   1.157       .  T
C2249      N2251   1.158       .  T
C2250      N2252   1.157       .  T
C2255      C2260   1.399   1_455  A
C2256      C2257   1.406       .  A
C2256      C2261   1.455       .  S
C2257      C2264   1.455       .  S
C2258      C2259   1.443   1_455  A
C2259      C2260   1.414       .  A
C2259      C2262   1.450       .  S
C2260      C2263   1.453       .  S
C2261      N2268   1.158       .  T
C2262      N2267   1.158       .  T
C2263      N2265   1.157       .  T
C2264      N2266   1.157       .  T
C2269      C2274   1.426       .  A
C2270      C2271   1.404       .  A
C2270      C2275   1.448       .  S
C2271      C2272   1.398   1_455  A
C2271      C2278   1.453       .  S
C2273      C2274   1.416       .  A
C2273      C2276   1.450       .  S
C2274      C2277   1.448       .  S
C2275      N2282   1.158       .  T
C2276      N2281   1.157       .  T
C2277      N2279   1.157       .  T
C2278      N2280   1.158       .  T
C2283      C2288   1.419       .  A
C2284      C2285   1.412       .  A
C2284      C2289   1.452       .  S
C2285      C2286   1.413       .  A
C2285      C2292   1.451       .  S
C2287      C2288   1.420       .  A
C2287      C2290   1.451       .  S
C2288      C2291   1.451       .  S
C2289      N2296   1.157       .  T
C2290      N2295   1.157       .  T
C2291      N2293   1.157       .  T
C2292      N2294   1.157       .  T
C2297      C2302   1.410       .  A
C2298      C2299   1.426       .  A
C2298      C2303   1.449       .  S
C2299      C2300   1.424       .  A
C2299      C2306   1.449       .  S
C2301      C2302   1.408       .  A
C2301      C2304   1.450       .  S
C2302      C2305   1.448       .  S
C2303      N2310   1.157       .  T
C2304      N2309   1.158       .  T
C2305      N2307   1.155       .  T
C2306      N2308   1.157       .  T
C2311      C2316   1.407       .  A
C2312      C2313   1.410       .  A
C2312      C2317   1.457       .  S
C2313      C2314   1.440   1_565  A
C2313      C2320   1.449       .  S
C2315      C2316   1.415       .  A
C2315      C2318   1.448       .  S
C2316      C2319   1.450       .  S
C2317      N2324   1.158       .  T
C2318      N2323   1.157       .  T
C2319      N2321   1.157       .  T
C2320      N2322   1.158       .  T
C2325      C2326   1.415       .  A
C2326      C2327   1.413       .  A
C2326      C2331   1.450       .  S
C2327      C2334   1.449       .  S
C2328      C2329   1.416       .  A
C2329      C2330   1.413       .  A
C2329      C2332   1.451       .  S
C2330      C2333   1.450       .  S
C2331      N2338   1.157       .  T
C2332      N2337   1.158       .  T
C2333      N2335   1.157       .  T
C2334      N2336   1.157       .  T
C2339      C2344   1.416   1_545  A
C2340      C2341   1.404       .  A
C2340      C2345   1.449       .  S
C2341      C2342   1.417       .  A
C2341      C2348   1.446       .  S
C2343      C2344   1.418       .  A
C2343      C2346   1.449       .  S
C2344      C2347   1.451       .  S
C2345      N2352   1.158       .  T
C2346      N2351   1.158       .  T
C2347      N2349   1.157       .  T
C2348      N2350   1.156       .  T
C2353      C2358   1.418       .  A
C2354      C2355   1.422       .  A
C2354      C2359   1.450       .  S
C2355      C2356   1.418       .  A
C2355      C2362   1.450       .  S
C2357      C2358   1.403       .  A
C2357      C2360   1.454       .  S
C2358      C2361   1.442       .  S
C2359      N2366   1.158       .  T
C2360      N2365   1.157       .  T
C2361      N2363   1.156       .  T
C2362      N2364   1.157       .  T
C2367      C2372   1.413   1_455  A
C2368      C2369   1.411       .  A
C2368      C2373   1.450       .  S
C2369      C2370   1.422       .  A
C2369      C2376   1.451       .  S
C2371      C2372   1.414       .  A
C2371      C2374   1.448       .  S
C2372      C2375   1.453       .  S
C2373      N2380   1.157       .  T
C2374      N2379   1.157       .  T
C2375      N2377   1.157       .  T
C2376      N2378   1.157       .  T
C2381      C2382   1.440       .  A
C2381      C2386   1.449       .  A
C2382      C2383   1.416       .  A
C2382      C2387   1.445       .  S
C2383      C2384   1.415       .  A
C2383      C2390   1.449       .  S
C2384      C2385   1.403       .  A
C2385      C2386   1.402       .  A
C2385      C2388   1.451       .  S
C2386      C2389   1.451       .  S
C2387      N2394   1.158       .  T
C2388      N2393   1.157       .  T
C2389      N2391   1.158       .  T
C2390      N2392   1.157       .  T
C2395      C2396   1.395       .  A
C2395      C2400   1.391       .  A
C2396      C2397   1.420       .  A
C2396      C2401   1.455       .  S
C2397      C2398   1.450       .  A
C2397      C2404   1.446       .  S
C2398      C2399   1.458       .  A
C2399      C2400   1.413       .  A
C2399      C2402   1.445   1_655  S
C2400      C2403   1.463       .  S
C2401      N2408   1.157       .  T
C2403      N2405   1.158       .  T
C2404      N2406   1.157       .  T
C2409      C2410   1.415       .  A
C2409      C2414   1.410       .  A
C2410      C2411   1.419       .  A
C2410      C2415   1.450       .  S
C2411      C2412   1.421       .  A
C2411      C2418   1.450       .  S
C2412      C2413   1.426       .  A
C2413      C2414   1.410       .  A
C2413      C2416   1.451       .  S
C2414      C2417   1.455       .  S
C2415      N2422   1.157       .  T
C2416      N2421   1.157   1_554  T
C2417      N2419   1.158       .  T
C2418      N2420   1.157       .  T
C2423      C2424   1.431       .  A
C2423      C2428   1.424       .  A
C2424      C2425   1.410       .  A
C2424      C2429   1.449       .  S
C2425      C2426   1.406       .  A
C2425      C2432   1.456       .  S
C2426      C2427   1.412       .  A
C2427      C2428   1.419       .  A
C2427      C2430   1.450       .  S
C2428      C2431   1.448       .  S
C2429      N2436   1.157   1_554  T
C2430      N2435   1.157       .  T
C2431      N2433   1.157   1_565  T
C2432      N2434   1.158       .  T
C2437      C2438   1.420       .  A
C2437      C2442   1.422       .  A
C2438      C2439   1.412       .  A
C2438      C2443   1.450       .  S
C2439      C2440   1.415       .  A
C2439      C2446   1.452       .  S
C2440      C2441   1.413       .  A
C2441      C2442   1.413       .  A
C2441      C2444   1.452       .  S
C2442      C2445   1.451       .  S
C2443      N2450   1.157       .  T
C2444      N2449   1.157       .  T
C2445      N2447   1.157   1_556  T
C2446      N2448   1.158       .  T
C2451      C2452   1.412       .  A
C2451      C2456   1.417       .  A
C2452      C2453   1.410       .  A
C2452      C2457   1.453       .  S
C2453      C2454   1.420       .  A
C2453      C2460   1.447       .  S
C2454      C2455   1.420       .  A
C2455      C2456   1.418       .  A
C2455      C2458   1.450       .  S
C2456      C2459   1.451       .  S
C2457      N2464   1.157       .  T
C2458      N2463   1.158       .  T
C2459      N2461   1.157       .  T
C2460      N2462   1.156       .  T
C2465      C2470   1.450   1_455  A
C2466      C2467   1.413       .  A
C2466      C2471   1.454       .  S
C2467      C2474   1.455       .  S
C2468      C2469   1.402   1_455  A
C2469      C2470   1.412       .  A
C2469      C2472   1.457       .  S
C2470      C2473   1.450       .  S
C2471      N2478   1.157       .  T
C2472      N2477   1.158       .  T
C2473      N2475   1.158       .  T
C2474      N2476   1.158       .  T
C2479      C2480   1.448       .  A
C2480      C2481   1.410       .  A
C2480      C2485   1.453       .  S
C2481      C2482   1.403   1_655  A
C2481      C2488   1.456       .  S
C2483      C2484   1.409       .  A
C2483      C2486   1.454       .  S
C2484      C2487   1.451       .  S
C2485      N2492   1.157       .  T
C2486      N2491   1.157       .  T
C2487      N2489   1.158       .  T
C2488      N2490   1.158       .  T
C2493      C2494   1.448       .  A
C2493      C2498   1.449       .  A
C2494      C2495   1.414       .  A
C2494      C2499   1.451       .  S
C2495      C2496   1.403       .  A
C2495      C2502   1.456       .  S
C2496      C2497   1.401       .  A
C2497      C2498   1.409       .  A
C2497      C2500   1.456       .  S
C2498      C2501   1.454       .  S
C2499      N2506   1.159       .  T
C2500      N2505   1.157       .  T
C2502      N2504   1.157       .  T
C2507      C2508   1.448       .  A
C2507      C2512   1.448       .  A
C2508      C2509   1.415       .  A
C2508      C2513   1.450       .  S
C2509      C2510   1.404       .  A
C2509      C2516   1.455       .  S
C2510      C2511   1.403       .  A
C2511      C2512   1.411       .  A
C2511      C2514   1.455       .  S
C2512      C2515   1.454       .  S
C2513      N2520   1.158       .  T
C2514      N2519   1.158       .  T
C2515      N2517   1.157   1_655  T
C2516      N2518   1.157       .  T
C2521      C2526   1.435       .  A
C2522      C2523   1.422       .  A
C2522      C2527   1.452       .  S
C2523      C2530   1.453       .  S
C2524      C2525   1.404       .  A
C2525      C2526   1.408       .  A
C2525      C2528   1.454       .  S
C2526      C2529   1.447       .  S
C2527      N2534   1.158       .  T
C2528      N2533   1.157       .  T
C2529      N2531   1.158       .  T
C2530      N2532   1.157       .  T
C2535      C2536   1.429       .  A
C2536      C2537   1.406       .  A
C2536      C2541   1.451       .  S
C2537      C2538   1.411       .  A
C2537      C2544   1.450       .  S
C2539      C2540   1.421       .  A
C2539      C2542   1.449       .  S
C2540      C2543   1.450       .  S
C2541      N2548   1.158       .  T
C2542      N2547   1.157       .  T
C2543      N2545   1.158       .  T
C2544      N2546   1.158       .  T
C2549      C2550   1.443       .  A
C2549      C2554   1.442       .  A
C2550      C2551   1.412       .  A
C2550      C2555   1.451       .  S
C2551      C2552   1.406       .  A
C2551      C2558   1.453       .  S
C2552      C2553   1.408       .  A
C2553      C2554   1.413       .  A
C2553      C2556   1.455       .  S
C2554      C2557   1.451       .  S
C2555      N2562   1.158       .  T
C2556      N2561   1.158       .  T
C2557      N2559   1.157       .  T
C2558      N2560   1.157       .  T
C2563      C2564   1.407       .  A
C2563      C2568   1.397       .  A
C2564      C2565   1.422       .  A
C2564      C2569   1.450       .  S
C2565      C2566   1.441       .  A
C2565      C2572   1.454       .  S
C2566      C2567   1.445       .  A
C2567      C2568   1.404       .  A
C2567      C2570   1.452   1_565  S
C2568      C2571   1.457       .  S
C2569      N2576   1.157       .  T
C2570      N2575   1.158       .  T
C2571      N2573   1.157       .  T
C2572      N2574   1.158       .  T
C2577      C2578   1.421       .  A
C2577      C2582   1.423       .  A
C2578      C2579   1.417       .  A
C2578      C2583   1.450       .  S
C2579      C2580   1.414       .  A
C2579      C2586   1.451       .  S
C2580      C2581   1.413       .  A
C2581      C2582   1.409       .  A
C2581      C2584   1.455       .  S
C2582      C2585   1.452       .  S
C2583      N2590   1.157       .  T
C2584      N2589   1.158       .  T
C2585      N2587   1.157   1_554  T
C2586      N2588   1.157       .  T
C2591      C2592   1.421       .  A
C2591      C2596   1.422       .  A
C2592      C2593   1.417       .  A
C2592      C2597   1.449       .  S
C2593      C2594   1.413       .  A
C2593      C2600   1.451       .  S
C2594      C2595   1.413       .  A
C2595      C2596   1.409       .  A
C2595      C2598   1.454       .  S
C2596      C2599   1.452       .  S
C2597      N2604   1.157   1_655  T
C2598      N2603   1.158       .  T
C2599      N2601   1.157   1_554  T
C2600      N2602   1.157       .  T
C2605      C2606   1.420       .  A
C2605      C2610   1.424       .  A
C2606      C2607   1.414       .  A
C2606      C2611   1.451       .  S
C2607      C2608   1.415       .  A
C2607      C2614   1.451       .  S
C2608      C2609   1.409       .  A
C2609      C2610   1.411       .  A
C2609      C2612   1.452       .  S
C2610      C2613   1.452       .  S
C2612      N2617   1.157       .  T
C2613      N2615   1.157   1_556  T
C2614      N2616   1.157       .  T
C2619      C2620   1.420       .  A
C2619      C2624   1.423       .  A
C2620      C2621   1.414       .  A
C2620      C2625   1.450       .  S
C2621      C2622   1.415       .  A
C2621      C2628   1.451       .  S
C2622      C2623   1.412       .  A
C2623      C2624   1.411       .  A
C2623      C2626   1.453       .  S
C2624      C2627   1.452       .  S
C2625      N2632   1.157       .  T
C2626      N2631   1.157       .  T
C2627      N2629   1.157   1_556  T
C2628      N2630   1.157       .  T
C2633      C2634   1.417       .  A
C2634      C2635   1.417       .  A
C2634      C2639   1.451       .  S
C2635      C2636   1.438       .  A
C2635      C2642   1.450       .  S
C2637      C2638   1.408       .  A
C2637      C2640   1.454       .  S
C2638      C2641   1.457       .  S
C2639      N2646   1.158       .  T
C2640      N2645   1.158       .  T
C2641      N2643   1.157       .  T
C2642      N2644   1.158       .  T
C2647      C2648   1.443       .  A
C2648      C2649   1.419       .  A
C2648      C2653   1.447       .  S
C2649      C2650   1.402       .  A
C2649      C2656   1.454       .  S
C2651      C2652   1.402   1_565  A
C2651      C2654   1.458       .  S
C2652      C2655   1.452       .  S
C2653      N2660   1.157       .  T
C2654      N2659   1.157       .  T
C2655      N2657   1.158       .  T
C2656      N2658   1.157       .  T
C2661      C2662   1.450       .  A
C2661      C2666   1.439       .  A
C2662      C2663   1.403       .  A
C2662      C2667   1.455       .  S
C2663      C2664   1.394       .  A
C2663      C2670   1.457       .  S
C2664      C2665   1.403       .  A
C2665      C2666   1.419       .  A
C2665      C2668   1.453       .  S
C2666      C2669   1.448       .  S
C2667      N2674   1.158       .  T
C2668      N2673   1.157       .  T
C2669      N2671   1.157       .  T
C2670      N2672   1.157       .  T
C2675      C2676   1.401       .  A
C2675      C2680   1.402       .  A
C2676      C2677   1.417       .  A
C2676      C2681   1.454       .  S
C2677      C2678   1.445       .  A
C2677      C2684   1.448       .  S
C2678      C2679   1.449       .  A
C2679      C2680   1.407       .  A
C2679      C2682   1.452       .  S
C2680      C2683   1.459       .  S
C2681      N2688   1.157       .  T
C2682      N2687   1.157   1_565  T
C2683      N2685   1.158       .  T
C2684      N2686   1.158       .  T
