geometry optimzed in LAMMPS
_audit_creation_date              2020-12-01 
_audit_creation_method            'lammps2cif' 
_symmetry_space_group_name_H-M    'P1' 
_symmetry_Int_Tables_number       1 
_symmetry_cell_setting            triclinic 
loop_ 
_symmetry_equiv_pos_as_xyz 
  x,y,z 
_cell_length_a                    85.33889788 
_cell_length_b                    85.42130329334334 
_cell_length_c                    30.702079489640468 
_cell_angle_alpha                 90.02450173388638 
_cell_angle_beta                  90.04413581701436 
_cell_angle_gamma                 135.37104591092626 
loop_ 
_atom_site_label 
_atom_site_type_symbol 
_atom_site_fract_x 
_atom_site_fract_y 
_atom_site_fract_z 
_atom_site_charge 
N1          N  0.43031187  0.89892168  0.48709047    -0.03000
C2          C  0.43634735  0.91859827  0.48386973    -0.00400
C3          C  0.45562572  0.93482347  0.00776755    -0.23300
C4          C  0.46039486  0.92452977  0.02925451    -0.23500
C5          C  0.44438088  0.90244774  0.01688326    -0.00500
H6          H  0.46323378  0.95141014  0.01484112     0.13300
H7          H  0.47237720  0.93170054  0.05538300     0.13300
N8          N  0.43159430  0.43876277  0.04358702    -0.03000
C9          C  0.43998320  0.42975571  0.04724305    -0.00400
C10         C  0.42896595  0.41256946  0.51729736    -0.23300
C11         C  0.41830857  0.41462201  0.48874999    -0.23500
C12         C  0.42013062  0.43090908  0.00486037    -0.00500
H13         H  0.43299438  0.40341302  0.50917652     0.13300
H14         H  0.41189179  0.40649593  0.45735797     0.13300
C15         C  0.39198570  0.78349770  0.23143224     0.02800
C16         C  0.38952687  0.78432552  0.27719268     0.02700
C17         C  0.37972312  0.76546362  0.30287682    -0.17800
C18         C  0.37279155  0.74616993  0.28493841     0.02800
C19         C  0.37525728  0.74544835  0.23953587     0.02700
C20         C  0.38505213  0.76413129  0.21382224    -0.17800
H21         H  0.38708105  0.76346975  0.17921165     0.04800
H22         H  0.37756596  0.76586106  0.33752442     0.04800
O23         O  0.28540190  0.59320337  0.46204477    -0.84900
O24         O  0.24543123  0.55084185  0.48125527    -0.81900
C25         C  0.24199502  0.53665327  0.45711961     0.98600
O26         O  0.25402337  0.53319621  0.45972134    -0.81900
O27         O  0.29122359  0.54191443  0.47739887    -0.84600
C28         C  0.30705267  0.55757947  0.45297847     1.03100
O29         O  0.31517005  0.57687306  0.45666449    -0.77300
O30         O  0.31939833  0.61091896  0.48092397    -0.77500
C31         C  0.30612202  0.60979313  0.45878056     1.03100
O32         O  0.29534927  0.60354836  0.05318850    -0.84900
O33         O  0.25621758  0.56040254  0.07191592    -0.81900
C34         C  0.24183201  0.53949270  0.07385589     0.98600
O35         O  0.24378324  0.52869569  0.05054523    -0.81900
O36         O  0.28313218  0.54043463  0.06881094    -0.84600
C37         C  0.30367191  0.55196371  0.07006722     1.03100
O38         O  0.31727915  0.56892318  0.04606165    -0.77400
O39         O  0.31799483  0.60038963  0.07027800    -0.77500
C40         C  0.31117943  0.60932239  0.07584697     1.03100
Cr41       Cr  0.27175195  0.57626034  0.01694542     1.93700
Cr42       Cr  0.26937926  0.53848498  0.01435324     1.93200
Cr43       Cr  0.31496171  0.58757815  0.01354953     1.39100
O44         O  0.28532745  0.56742674  0.01499717    -1.22600
C45         C  0.37961605  0.48777044  0.24601555     0.02800
C46         C  0.38024744  0.48968086  0.29251809     0.02700
C47         C  0.37355363  0.49927731  0.31157212    -0.17800
C48         C  0.36536804  0.50600803  0.28664199     0.02800
C49         C  0.36480990  0.50416902  0.24074315     0.02700
C50         C  0.37153414  0.49481214  0.22132273    -0.17800
H51         H  0.37056676  0.49310374  0.18616907     0.04800
H52         H  0.37431189  0.50115646  0.34666098     0.04800
C53         C  0.10339654  0.46746362  0.24788608     0.02800
C54         C  0.10442367  0.46821231  0.29399550     0.02700
C55         C  0.08644724  0.46135998  0.31784124    -0.17800
C56         C  0.06716806  0.45366767  0.29784238     0.02800
C57         C  0.06596637  0.45292025  0.25128927     0.02700
C58         C  0.08392939  0.45918882  0.22747511    -0.17800
H59         H  0.08317850  0.45859333  0.19220440     0.04800
H60         H  0.08750426  0.46201705  0.35310619     0.04800
N61         N  0.95227416  0.42090938  0.04952556    -0.03000
C62         C  0.95105026  0.41236866  0.01021905    -0.00400
C63         C  0.93016772  0.39957112  0.49244178    -0.23300
C64         C  0.91827240  0.40006235  0.02072575    -0.23500
C65         C  0.93289042  0.41572000  0.05270308    -0.00500
H66         H  0.92459054  0.39229396  0.46023495     0.13300
H67         H  0.90269270  0.39431778  0.51159566     0.13300
N68         N  0.91339544  0.42792259  0.05521021    -0.03000
C69         C  0.93299080  0.43344141  0.05525321    -0.00400
C70         C  0.94657380  0.44924201  0.02280132    -0.23300
C71         C  0.93345404  0.44889432  0.49648482    -0.23500
C72         C  0.91295869  0.43553154  0.01640904    -0.00500
H73         H  0.96218897  0.45548457  0.51178477     0.13300
H74         H  0.93790268  0.45576620  0.46398567     0.13300
N75         N  0.47323291  0.43545097  0.04191214    -0.03000
C76         C  0.46470346  0.44420628  0.04633293    -0.00400
C77         C  0.47785599  0.46366675  0.02186454    -0.23300
C78         C  0.49340493  0.46599620  0.50006389    -0.23500
C79         C  0.48946052  0.44783420  0.01106605    -0.00500
H80         H  0.47403546  0.47291807  0.51368442     0.13300
H81         H  0.50362806  0.47736849  0.47338010     0.13300
C82         C  0.79182972  0.37597359  0.25769670     0.02800
C83         C  0.78971767  0.37439945  0.30412304     0.02700
C84         C  0.76849285  0.36181098  0.32275124    -0.17800
C85         C  0.74960908  0.35161436  0.29724941     0.02800
C86         C  0.75181599  0.35378202  0.25137726     0.02700
C87         C  0.77278814  0.36603923  0.23243113    -0.17800
H88         H  0.77426513  0.36769937  0.19727746     0.04800
H89         H  0.76665123  0.36001475  0.35785962     0.04800
C90         C  0.51049535  0.37472140  0.25069616     0.02800
C91         C  0.51157058  0.37467468  0.29704404     0.02700
C92         C  0.51710165  0.36424520  0.31671798    -0.17800
C93         C  0.52196921  0.35426677  0.29219600     0.02800
C94         C  0.52152657  0.35490693  0.24601668     0.02700
C95         C  0.51542051  0.36472812  0.22625529    -0.17800
H96         H  0.51492895  0.36500448  0.19098946     0.04800
H97         H  0.51751450  0.36379038  0.35196207     0.04800
O98         O  0.56144975  0.22929508  0.48136641    -0.84900
O99         O  0.60487178  0.26617456  0.49769127    -0.81900
C100        C  0.61175188  0.27947633  0.46674453     0.98600
O101        O  0.60486303  0.28854601  0.46279124    -0.81900
O102        O  0.57727109  0.29541636  0.47328480    -0.84600
C103        C  0.55976797  0.28105017  0.45093207     1.03100
O104        O  0.54746602  0.26064819  0.45781375    -0.77300
O105        O  0.53113313  0.22155715  0.49202010    -0.77500
C106        C  0.54102592  0.21706935  0.47495203     1.03100
O107        O  0.55064367  0.22513938  0.07139239    -0.84900
O108        O  0.59463737  0.26518991  0.08668376    -0.81900
C109        C  0.61312288  0.28515179  0.08244291     0.98600
O110        O  0.61506491  0.29669190  0.05293136    -0.81900
O111        O  0.58426737  0.29890181  0.06480705    -0.84600
C112        C  0.56532263  0.29193439  0.06621893     1.03100
O113        O  0.54920871  0.27540909  0.04360404    -0.77400
O114        O  0.53523530  0.23737498  0.07770152    -0.77500
C115        C  0.53678560  0.22438279  0.08925981     1.03100
Cr116      Cr  0.57729785  0.24772722  0.03365338     1.93700
Cr117      Cr  0.59357392  0.29255318  0.01405047     1.93200
Cr118      Cr  0.54316407  0.24992357  0.01803839     1.39100
O119        O  0.57126658  0.26335864  0.02223771    -1.22600
C120        C  0.46776182  0.08613288  0.23876423     0.02800
C121        C  0.47265647  0.08631773  0.28306714     0.02700
C122        C  0.46913140  0.06869396  0.29948101    -0.17800
C123        C  0.46066329  0.05057454  0.27339089     0.02800
C124        C  0.45538904  0.05006600  0.22902164     0.02700
C125        C  0.45871851  0.06769256  0.21276103    -0.17800
H126        H  0.45497404  0.06743689  0.17885334     0.04800
H127        H  0.47306416  0.06909166  0.33333367     0.04800
N128        N  0.42594473  0.93956101  0.48146423    -0.03000
C129        C  0.41071450  0.93591619  0.00774647    -0.00400
C130        C  0.39366438  0.91355674  0.01757031    -0.23300
C131        C  0.39919588  0.90334803  0.99939963    -0.23500
C132        C  0.41984164  0.91982192  0.47988533    -0.00500
H133        H  0.38055270  0.90611082  0.04119837     0.13300
H134        H  0.39103081  0.88663449  0.00696388     0.13300
C135        C  0.45671907  0.03235766  0.29527495     0.01800
C136        C  0.43643004  0.01532763  0.31740238     0.04700
C137        C  0.43329517  0.99949004  0.34258112    -0.11400
C138        C  0.45077827  0.00102810  0.34810066     0.23900
C139        C  0.47121038  0.01820223  0.32660581    -0.12000
C140        C  0.47447999  0.03432885  0.30201063     0.05400
C141        C  0.44806860  0.98581249  0.37967506     0.27800
C142        C  0.45768657  0.99344854  0.42163491    -0.12700
C143        C  0.45257703  0.97839300  0.45335766     0.05900
C144        C  0.43618364  0.95522576  0.44520523    -0.08600
C145        C  0.42771009  0.94780229  0.40191139     0.06700
C146        C  0.43432102  0.96321056  0.36922691    -0.13000
Br147      Br  0.49487228  0.01982886  0.33159410    -0.05100
Br148      Br  0.41428253  0.01590122  0.32020676     0.00500
Br149      Br  0.46876499  0.98970086  0.00743939     0.01000
Br150      Br  0.42390496  0.95342367  0.30998108    -0.03400
Br151      Br  0.50431085  0.06105335  0.28469239     0.01100
Br152      Br  0.40505704  0.97609833  0.37093351    -0.02700
Br153      Br  0.47683300  0.02439223  0.43679033    -0.03600
Br154      Br  0.40594493  0.91661876  0.38631414     0.00400
C155        C  0.41655788  0.95282489  0.03912399     0.01800
C156        C  0.41145877  0.96495842  0.03018502     0.04700
C157        C  0.41777607  0.98133912  0.05978499    -0.11400
C158        C  0.42690821  0.98384365  0.10074840     0.23900
C159        C  0.43017702  0.97034521  0.11128969    -0.12000
C160        C  0.42618619  0.95586861  0.07993936     0.05400
C161        C  0.43393789  0.00106161  0.13257192     0.27800
C162        C  0.45679947  0.02039519  0.13891677    -0.12700
C163        C  0.46374158  0.03585060  0.17154467     0.05900
C164        C  0.44787597  0.03249701  0.19747494    -0.08600
C165        C  0.42495952  0.01405186  0.18836844     0.06700
C166        C  0.41803940  0.99776517  0.15790116    -0.13000
Br167      Br  0.44002310  0.97165073  0.16923148    -0.05100
Br168      Br  0.39479835  0.95823308  0.47877323     0.00500
Br169      Br  0.49504997  0.06248589  0.17767202     0.01000
Br170      Br  0.38679276  0.97065510  0.15149678    -0.03400
Br171      Br  0.43540553  0.94150630  0.09308906     0.01100
Br172      Br  0.41447701  0.00068771  0.04391363    -0.02700
Br173      Br  0.47864733  0.02579397  0.10229105    -0.03600
Br174      Br  0.40304344  0.01233431  0.21289980     0.00400
C175        C  0.48179440  0.10480948  0.31322946     0.01800
C176        C  0.50421056  0.12557470  0.30961417     0.04700
C177        C  0.51247858  0.14337088  0.33668638    -0.11400
C178        C  0.49868516  0.14018393  0.36882652     0.23900
C179        C  0.47687504  0.11905537  0.37487705    -0.12000
C180        C  0.46847293  0.10129464  0.34743840     0.05400
C181        C  0.50773483  0.15881527  0.39800784     0.27800
C182        C  0.51945176  0.16272305  0.43575331    -0.12700
C183        C  0.52962155  0.18141930  0.46173992     0.05900
C184        C  0.52845316  0.19650239  0.44954469    -0.08600
C185        C  0.51583864  0.19202273  0.41282556     0.06700
C186        C  0.50534381  0.17304887  0.38723947    -0.13000
Br187      Br  0.45883683  0.11451781  0.42152943    -0.05100
Br188      Br  0.52440981  0.12896560  0.27168007     0.00500
Br189      Br  0.54443782  0.18581706  0.51500506     0.01000
Br190      Br  0.48783558  0.16651551  0.33718884    -0.03400
Br191      Br  0.43905152  0.07204756  0.35825575     0.01100
Br192      Br  0.54298622  0.17201155  0.33098413    -0.02700
Br193      Br  0.52169492  0.14248967  0.45147160    -0.03600
Br194      Br  0.51385124  0.21233914  0.39613782     0.00400
C195        C  0.52088995  0.20628630  0.12061549     0.01800
C196        C  0.52826296  0.20688848  0.16215161     0.04700
C197        C  0.51625512  0.18701015  0.18567294    -0.11400
C198        C  0.49687125  0.16651696  0.16754895     0.23900
C199        C  0.48799248  0.16634678  0.12864530    -0.12000
C200        C  0.49992006  0.18627094  0.10536283     0.05400
C201        C  0.48835277  0.14534088  0.18478678     0.27800
C202        C  0.49821976  0.13835025  0.17028890    -0.12700
C203        C  0.49093867  0.11867284  0.18660019     0.05900
C204        C  0.47372624  0.10575077  0.21809226    -0.08600
C205        C  0.46264740  0.11191170  0.22971955     0.06700
C206        C  0.47024756  0.13188154  0.21380655    -0.13000
Br207      Br  0.46060747  0.13850308  0.10527709    -0.05100
Br208      Br  0.55509113  0.23483558  0.18601598     0.00500
Br209      Br  0.50484730  0.10978594  0.16483583     0.01000
Br210      Br  0.45570280  0.14074059  0.23069117    -0.03400
Br211      Br  0.48835094  0.18577393  0.05085003     0.01100
Br212      Br  0.52724749  0.18751887  0.24096943    -0.02700
Br213      Br  0.52176898  0.15585396  0.12737213    -0.03600
Br214      Br  0.43565155  0.09202319  0.26331686     0.00400
C215        C  0.56157070  0.30335785  0.09310376     0.01800
C216        C  0.56062788  0.31753789  0.07312281     0.04700
C217        C  0.55415523  0.32617263  0.09734972    -0.11400
C218        C  0.54861824  0.32069358  0.14175013     0.23900
C219        C  0.54955791  0.30652171  0.16172261    -0.12000
C220        C  0.55605640  0.29791211  0.13745985     0.05400
C221        C  0.54171409  0.32974428  0.16738706     0.27800
C222        C  0.55753154  0.34915679  0.19257320    -0.12700
C223        C  0.55103447  0.35771200  0.21701676     0.05900
C224        C  0.52850782  0.34654349  0.21754888    -0.08600
C225        C  0.51308669  0.32815192  0.18930616     0.06700
C226        C  0.51955240  0.31942356  0.16536085    -0.13000
Br227      Br  0.54095833  0.29816385  0.22184844    -0.05100
Br228      Br  0.56797116  0.32496378  0.01234108     0.00500
Br229      Br  0.57355794  0.38624716  0.24516667     0.01000
Br230      Br  0.49807774  0.29322303  0.12966808    -0.03400
Br231      Br  0.55642540  0.27782853  0.16436100     0.01100
Br232      Br  0.55216236  0.34495269  0.06945835    -0.02700
Br233      Br  0.58824420  0.36422584  0.19276708    -0.03600
Br234      Br  0.48346333  0.31550591  0.18095872     0.00400
C235        C  0.52653506  0.34249523  0.31565812     0.01800
C236        C  0.54466598  0.35396061  0.34505071     0.04700
C237        C  0.54869561  0.34246266  0.36632103    -0.11400
C238        C  0.53573278  0.31993236  0.35611235     0.23900
C239        C  0.51747467  0.30847812  0.32750245    -0.12000
C240        C  0.51198173  0.31930761  0.31024020     0.05400
C241        C  0.54074794  0.30813538  0.37699300     0.27800
C242        C  0.56028283  0.31375225  0.36576462    -0.12700
C243        C  0.56637800  0.30451594  0.38902539     0.05900
C244        C  0.55217512  0.28836360  0.42152679    -0.08600
C245        C  0.53173777  0.28148553  0.43035229     0.06700
C246        C  0.52646793  0.29191335  0.40933983    -0.13000
Br247      Br  0.49985527  0.27788816  0.31176902    -0.05100
Br248      Br  0.56383780  0.38522823  0.35755129     0.00500
Br249      Br  0.59433793  0.31427475  0.37654417     0.01000
Br250      Br  0.50037305  0.28499885  0.42717175    -0.03400
Br251      Br  0.48268737  0.30156855  0.28612277     0.01100
Br252      Br  0.57153747  0.35735410  0.41062340    -0.02700
Br253      Br  0.57887548  0.33444248  0.31885344    -0.03600
Br254      Br  0.51151407  0.25902432  0.47386631     0.00400
C255        C  0.72758085  0.33854139  0.31907825     0.01800
C256        C  0.71083429  0.31500409  0.31707666     0.04700
C257        C  0.68954226  0.30269136  0.33485184    -0.11400
C258        C  0.68514119  0.31376499  0.35642158     0.23900
C259        C  0.70193783  0.33711595  0.35981307    -0.12000
C260        C  0.72314953  0.34942951  0.34199863     0.05400
C261        C  0.66438156  0.30114454  0.38195488     0.27800
C262        C  0.64619942  0.29661593  0.36475329    -0.12700
C263        C  0.62816968  0.28792136  0.39179583     0.05900
C264        C  0.62895779  0.28519551  0.43685379    -0.08600
C265        C  0.64656477  0.28822821  0.45323941     0.06700
C266        C  0.66405141  0.29600680  0.42565335    -0.13000
Br267      Br  0.69594184  0.35210727  0.39088511    -0.05100
Br268      Br  0.71787758  0.29944436  0.29557955     0.00500
Br269      Br  0.60162031  0.27786839  0.36623595     0.01000
Br270      Br  0.68849031  0.30096317  0.44815689    -0.03400
Br271      Br  0.74614839  0.38093971  0.35275615     0.01100
Br272      Br  0.66659249  0.27059712  0.33156222    -0.02700
Br273      Br  0.64656828  0.30336557  0.30470725    -0.03600
Br274      Br  0.64795192  0.28277173  0.01356649     0.00400
C275        C  0.63330874  0.29487359  0.10874092     0.01800
C276        C  0.65496369  0.31604020  0.09715532     0.04700
C277        C  0.67400223  0.32447434  0.11980239    -0.11400
C278        C  0.67189727  0.31317124  0.15611871     0.23900
C279        C  0.65095593  0.29224527  0.16762852    -0.12000
C280        C  0.63189634  0.28260687  0.14300551     0.05400
C281        C  0.69217112  0.32315336  0.18072715     0.27800
C282        C  0.70207676  0.31547569  0.17385402    -0.12700
C283        C  0.72173531  0.32545344  0.19626757     0.05900
C284        C  0.73245074  0.34423499  0.22320766    -0.08600
C285        C  0.72400979  0.35359963  0.22470432     0.06700
C286        C  0.70308423  0.34213961  0.20666910    -0.13000
Br287      Br  0.64876273  0.27644374  0.21643541    -0.05100
Br288      Br  0.66039890  0.33400446  0.04869797     0.00500
Br289      Br  0.73384621  0.31351556  0.18782548     0.01000
Br290      Br  0.68960005  0.35273411  0.21677955    -0.03400
Br291      Br  0.60502446  0.25185359  0.15533619     0.01100
Br292      Br  0.70359505  0.35114836  0.09969219    -0.02700
Br293      Br  0.68911099  0.29188809  0.13220784    -0.03600
Br294      Br  0.74272655  0.38378282  0.24426862     0.00400
C295        C  0.47485771  0.42524615  0.07704555     0.01800
C296        C  0.46762877  0.40448846  0.07092239     0.04700
C297        C  0.47343484  0.39686351  0.10129731    -0.11400
C298        C  0.48534009  0.40917235  0.13954503     0.23900
C299        C  0.49143097  0.42915489  0.14708784    -0.12000
C300        C  0.48730969  0.43771539  0.11514203     0.05400
C301        C  0.49224377  0.40156759  0.17085314     0.27800
C302        C  0.47648907  0.38362633  0.19917364    -0.12700
C303        C  0.48241171  0.37496499  0.22554871     0.05900
C304        C  0.50454214  0.38495870  0.22577950    -0.08600
C305        C  0.52030483  0.40294073  0.19706680     0.06700
C306        C  0.51430770  0.41149475  0.17071560    -0.13000
Br307      Br  0.50616834  0.44516446  0.20095611    -0.05100
Br308      Br  0.45068620  0.38676720  0.02006554     0.00500
Br309      Br  0.45921892  0.34733487  0.25557814     0.01000
Br310      Br  0.53656470  0.43684484  0.13418652    -0.03400
Br311      Br  0.50208214  0.46807267  0.12122263     0.01100
Br312      Br  0.46607119  0.37003109  0.08951427    -0.02700
Br313      Br  0.44662050  0.37079333  0.20128568    -0.03600
Br314      Br  0.54980532  0.41494406  0.19042934     0.00400
C315        C  0.50744677  0.38535467  0.32675194     0.01800
C316        C  0.48987162  0.37220170  0.35764001     0.04700
C317        C  0.48737613  0.38237614  0.38893585    -0.11400
C318        C  0.50226088  0.40568037  0.38975584     0.23900
C319        C  0.51989298  0.41886707  0.35966999    -0.12000
C320        C  0.52290191  0.40884112  0.32926167     0.05400
C321        C  0.49902290  0.41639088  0.42127838     0.27800
C322        C  0.48512850  0.41912294  0.40991886    -0.12700
C323        C  0.48217730  0.42957692  0.43898409     0.05900
C324        C  0.49368043  0.43798802  0.47938792    -0.08600
C325        C  0.50854842  0.43634501  0.48945092     0.06700
C326        C  0.51053070  0.42476646  0.46138006    -0.13000
Br327      Br  0.54014571  0.45085935  0.36086297    -0.05100
Br328      Br  0.46961698  0.34019255  0.35909104     0.00500
Br329      Br  0.46229099  0.43219918  0.42243494     0.01000
Br330      Br  0.52862890  0.41997692  0.47806073    -0.03400
Br331      Br  0.54995356  0.42772901  0.29585639     0.01100
Br332      Br  0.46378271  0.36451052  0.43150791    -0.02700
Br333      Br  0.47011507  0.40840103  0.35416687    -0.03600
Br334      Br  0.52755329  0.45166499  0.03953762     0.00400
C335        C  0.81280215  0.38658727  0.23340078     0.01800
C336        C  0.83274506  0.40956762  0.23705926     0.04700
C337        C  0.85205111  0.41876277  0.21372706    -0.11400
C338        C  0.85067094  0.40606202  0.18131551     0.23900
C339        C  0.83009318  0.38398451  0.17400329    -0.12000
C340        C  0.81210918  0.37382336  0.20227158     0.05400
C341        C  0.87050600  0.41510804  0.15528557     0.27800
C342        C  0.88035241  0.43214115  0.12455269    -0.12700
C343        C  0.89795656  0.43920628  0.09853152     0.05900
C344        C  0.90214016  0.42589865  0.09426209    -0.08600
C345        C  0.89314171  0.40953683  0.12690594     0.06700
C346        C  0.87851141  0.40529242  0.15879227    -0.13000
Br347      Br  0.82614241  0.36774814  0.12384830    -0.05100
Br348      Br  0.83336001  0.42927055  0.26934263     0.00500
Br349      Br  0.91866768  0.46908419  0.07612251     0.01000
Br350      Br  0.86838280  0.38513239  0.20644399    -0.03400
Br351      Br  0.78748905  0.34193003  0.19954162     0.01100
Br352      Br  0.88030787  0.44863652  0.22661778    -0.02700
Br353      Br  0.86859745  0.44448652  0.11427537    -0.03600
Br354      Br  0.89918261  0.39175832  0.12840112     0.00400
C355        C  0.89287436  0.42827783  0.49387399     0.01800
C356        C  0.87145870  0.40582908  0.49577034     0.04700
C357        C  0.85430573  0.39837687  0.46717283    -0.11400
C358        C  0.85863196  0.41243831  0.43419705     0.23900
C359        C  0.87924940  0.43487998  0.43324964    -0.12000
C360        C  0.89584113  0.44306839  0.46415628     0.05400
C361        C  0.84165597  0.40340490  0.39981849     0.27800
C362        C  0.83730569  0.38893097  0.36764174    -0.12700
C363        C  0.81989912  0.37880550  0.33743351     0.05900
C364        C  0.80875222  0.38542396  0.33508032    -0.08600
C365        C  0.81410945  0.40094232  0.36627567     0.06700
C366        C  0.82953962  0.40886553  0.39975523    -0.13000
Br367      Br  0.88515414  0.45419433  0.38776053    -0.05100
Br368      Br  0.86490759  0.38374457  0.03338275     0.00500
Br369      Br  0.80964461  0.35385424  0.30419410     0.01000
Br370      Br  0.83358133  0.42661887  0.44661008    -0.03400
Br371      Br  0.92218881  0.47491041  0.46484923     0.01100
Br372      Br  0.82473691  0.36839816  0.47170277    -0.02700
Br373      Br  0.85512744  0.38279691  0.36528922    -0.03600
Br374      Br  0.80115114  0.41230970  0.36322844     0.00400
C375        C  0.96960637  0.41743492  0.48561506     0.01800
C376        C  0.96440653  0.40118576  0.45653359     0.04700
C377        C  0.97978786  0.40735396  0.42451796    -0.11400
C378        C  0.00162825  0.42884063  0.42455745     0.23900
C379        C  0.00783223  0.44432360  0.45634243    -0.12000
C380        C  0.99172524  0.43920115  0.48494850     0.05400
C381        C  0.01805165  0.43498675  0.39134394     0.27800
C382        C  0.02641613  0.42554699  0.39329439    -0.12700
C383        C  0.04082281  0.43022062  0.36059567     0.05900
C384        C  0.04909116  0.44639019  0.32797395    -0.08600
C385        C  0.04189803  0.45705224  0.32827497     0.06700
C386        C  0.02528097  0.45017598  0.35773736    -0.13000
Br387      Br  0.03858860  0.47286797  0.45999024    -0.05100
Br388      Br  0.93671771  0.36988722  0.45999026     0.00500
Br389      Br  0.04876775  0.41388765  0.36081348     0.01000
Br390      Br  0.01229193  0.46151247  0.35189779    -0.03400
Br391      Br  0.00038505  0.46335605  0.01866762     0.01100
Br392      Br  0.97061511  0.38655634  0.37888459    -0.02700
Br393      Br  0.01862326  0.40666048  0.44177907    -0.03600
Br394      Br  0.05665238  0.48308115  0.29323704     0.00400
C395        C  0.04739314  0.44729481  0.22579806     0.01800
C396        C  0.05245798  0.46253945  0.19422002     0.04700
C397        C  0.03551231  0.45681153  0.16764948    -0.11400
C398        C  0.01294600  0.43711392  0.17561658     0.23900
C399        C  0.00770980  0.42256748  0.20883974    -0.12000
C400        C  0.02486316  0.42671696  0.23106361     0.05400
C401        C  0.99500984  0.43134966  0.14761138     0.27800
C402        C  0.99050309  0.44436329  0.14872937    -0.12700
C403        C  0.97612481  0.44102551  0.11742271     0.05900
C404        C  0.96446350  0.42316865  0.08697925    -0.08600
C405        C  0.96591966  0.40775727  0.09266430     0.06700
C406        C  0.98261163  0.41301436  0.11905049    -0.13000
Br407      Br  0.97697601  0.39703232  0.22448745    -0.05100
Br408      Br  0.08244809  0.49198287  0.18794220     0.00500
Br409      Br  0.97348011  0.46155500  0.11747402     0.01000
Br410      Br  0.98917268  0.39562182  0.11365875    -0.03400
Br411      Br  0.01729549  0.40278742  0.26344489     0.01100
Br412      Br  0.04340374  0.47571130  0.11908825    -0.02700
Br413      Br  0.00443314  0.46701887  0.19313944    -0.03600
Br414      Br  0.94275146  0.37770434  0.07136997     0.00400
C415        C  0.35742607  0.51493828  0.30909166     0.01800
C416        C  0.33605505  0.50042829  0.32859204     0.04700
C417        C  0.32834825  0.50892570  0.34771644    -0.11400
C418        C  0.34163067  0.53195002  0.34675713     0.23900
C419        C  0.36297319  0.54649999  0.32762381    -0.12000
C420        C  0.37123231  0.53812127  0.31100508     0.05400
C421        C  0.33432682  0.54091421  0.37126925     0.27800
C422        C  0.31714532  0.53844699  0.35517465    -0.12700
C423        C  0.30853092  0.54448690  0.38135764     0.05900
C424        C  0.31748141  0.55357588  0.42310469    -0.08600
C425        C  0.33562488  0.55738915  0.43788850     0.06700
C426        C  0.34354324  0.55046186  0.41271697    -0.13000
Br427      Br  0.38107049  0.57801886  0.32516476    -0.05100
Br428      Br  0.31749564  0.46898859  0.33241323     0.00500
Br429      Br  0.28437478  0.54019116  0.36049300     0.01000
Br430      Br  0.36607704  0.55271281  0.43647086    -0.03400
Br431      Br  0.40239752  0.55854663  0.29710997     0.01100
Br432      Br  0.29985290  0.48908259  0.37719060    -0.02700
Br433      Br  0.30483525  0.52595089  0.29808308    -0.03600
Br434      Br  0.34978021  0.57201831  0.99285333     0.00400
C435        C  0.35671875  0.51152818  0.21268825     0.01800
C436        C  0.37182136  0.53223495  0.19070629     0.04700
C437        C  0.36390663  0.53981031  0.16788596    -0.11400
C438        C  0.34099818  0.52713086  0.16816759     0.23900
C439        C  0.32590467  0.50619780  0.18881590    -0.12000
C440        C  0.33365700  0.49791047  0.20855725     0.05400
C441        C  0.33226253  0.53438059  0.14274309     0.27800
C442        C  0.33261322  0.54992309  0.16007951    -0.12700
C443        C  0.32272701  0.55532239  0.13680786     0.05900
C444        C  0.31205479  0.54482259  0.09672911    -0.08600
C445        C  0.31164508  0.52919537  0.07960127     0.06700
C446        C  0.32239629  0.52460478  0.10181864    -0.13000
Br447      Br  0.29447443  0.48872694  0.18954395    -0.05100
Br448      Br  0.40313795  0.54974330  0.18892617     0.00500
Br449      Br  0.32345071  0.57683831  0.15982055     0.01000
Br450      Br  0.32438269  0.50549357  0.07559507    -0.03400
Br451      Br  0.31267288  0.46684120  0.22336608     0.01100
Br452      Br  0.38421381  0.56714366  0.13487274    -0.02700
Br453      Br  0.34705468  0.56410394  0.21511237    -0.03600
Br454      Br  0.29620954  0.51373781  0.02589808     0.00400
C455        C  0.12398362  0.47579244  0.31833889     0.01800
C456        C  0.12948534  0.46365713  0.31525316     0.04700
C457        C  0.14927580  0.47205434  0.33413476    -0.11400
C458        C  0.16278821  0.49175468  0.35895285     0.23900
C459        C  0.15615204  0.50264593  0.36596085    -0.12000
C460        C  0.13682516  0.49475403  0.34579450     0.05400
C461        C  0.18346195  0.50069541  0.37992303     0.27800
C462        C  0.18223903  0.49192910  0.42008918    -0.12700
C463        C  0.20184050  0.50278133  0.44364459     0.05900
C464        C  0.22254342  0.52296185  0.42806335    -0.08600
C465        C  0.22389604  0.53119318  0.38710380     0.06700
C466        C  0.20438862  0.51977266  0.36259483    -0.13000
Br467      Br  0.17352988  0.52828849  0.40407941    -0.05100
Br468      Br  0.10858373  0.43417456  0.29042840     0.00500
Br469      Br  0.20006294  0.49043506  0.49820605     0.01000
Br470      Br  0.20607384  0.53094520  0.30650586    -0.03400
Br471      Br  0.12798820  0.50984595  0.35746341     0.01100
Br472      Br  0.15778975  0.45649353  0.32656871    -0.02700
Br473      Br  0.15358770  0.46613277  0.44449337    -0.03600
Br474      Br  0.25230840  0.55870517  0.36585904     0.00400
C475        C  0.12317227  0.47693628  0.22072745     0.01800
C476        C  0.14298935  0.49996238  0.22294463     0.04700
C477        C  0.16251244  0.50871749  0.20192418    -0.11400
C478        C  0.16208150  0.49494701  0.17549564     0.23900
C479        C  0.14183854  0.47240124  0.16972427    -0.12000
C480        C  0.12243467  0.46336282  0.19225795     0.05400
C481        C  0.18207339  0.50514859  0.14885879     0.27800
C482        C  0.18570128  0.51576547  0.10951105    -0.12700
C483        C  0.20544506  0.52736688  0.08579874     0.06300
C484        C  0.22134003  0.52753125  0.09999855    -0.08600
C485        C  0.21742992  0.51635380  0.13876171     0.06700
C486        C  0.19802055  0.50552257  0.16358122    -0.13000
Br487      Br  0.14061819  0.45431560  0.12912300    -0.05100
Br488      Br  0.14262078  0.52024280  0.24868648     0.00500
Br489      Br  0.21045776  0.54318355  0.03403234     0.01000
Br490      Br  0.19344917  0.49167752  0.21820181    -0.03400
Br491      Br  0.09475735  0.43272877  0.18195169     0.01100
Br492      Br  0.18972969  0.54002876  0.20714558    -0.02700
Br493      Br  0.16348246  0.51452386  0.08838760    -0.03600
Br494      Br  0.23917112  0.51678466  0.15857624     0.00400
C495        C  0.36738288  0.72517260  0.21797141     0.01800
C496        C  0.34828434  0.71176950  0.19085372     0.04700
C497        C  0.34006769  0.69197499  0.17282104    -0.11400
C498        C  0.35095362  0.68545445  0.18113680     0.23900
C499        C  0.37059400  0.69920975  0.20632150    -0.12000
C500        C  0.37912043  0.71932660  0.22367112     0.05400
C501        C  0.34304707  0.66557750  0.15838897     0.27800
C502        C  0.32410495  0.64398671  0.17356573    -0.12700
C503        C  0.31402139  0.62529607  0.14726485     0.05900
C504        C  0.32308423  0.62820801  0.10615003    -0.08600
C505        C  0.34276440  0.64970158  0.09217060     0.06700
C506        C  0.35258569  0.66836227  0.11801515    -0.13000
Br507      Br  0.38621635  0.69084348  0.21527978    -0.05100
Br508      Br  0.33365118  0.72059431  0.17559810     0.00500
Br509      Br  0.28748206  0.59578426  0.16673603     0.01000
Br510      Br  0.37811281  0.69795804  0.09655582    -0.03400
Br511      Br  0.40831768  0.74017064  0.24973523     0.01100
Br512      Br  0.31427994  0.67407600  0.13482026    -0.02700
Br513      Br  0.31129116  0.64026777  0.22911124    -0.03600
Br514      Br  0.35571932  0.65390677  0.03644023     0.00400
C515        C  0.36267870  0.72673152  0.31381433     0.01800
C516        C  0.37594979  0.72746077  0.34333971     0.04700
C517        C  0.36668954  0.70821790  0.36658634    -0.11400
C518        C  0.34422110  0.68804779  0.36023020     0.23900
C519        C  0.33066447  0.68755715  0.33273715    -0.12000
C520        C  0.33965324  0.70703703  0.31112869     0.05400
C521        C  0.33436670  0.66778879  0.38509461     0.27800
C522        C  0.33651940  0.65378798  0.37000153    -0.12700
C523        C  0.32672855  0.63438956  0.39336090     0.05900
C524        C  0.31499039  0.62908271  0.43214392    -0.08600
C525        C  0.31286263  0.64312113  0.44720771     0.06700
C526        C  0.32271072  0.66251093  0.42399296    -0.13000
Br527      Br  0.29962787  0.66014685  0.32520853    -0.05100
Br528      Br  0.40660171  0.75473352  0.35370282     0.00500
Br529      Br  0.32869606  0.61464011  0.37170070     0.01000
Br530      Br  0.32097187  0.68239511  0.44620168    -0.03400
Br531      Br  0.31984949  0.70742277  0.28274319     0.01100
Br532      Br  0.38456072  0.70940263  0.40800111    -0.02700
Br533      Br  0.35339214  0.66156913  0.31799735    -0.03600
Br534      Br  0.29688994  0.63621227  0.50027899     0.00400
C535        C  0.38657515  0.48108400  0.32303027     0.01800
C536        C  0.37153774  0.46576473  0.35639727     0.04700
C537        C  0.37794957  0.45940066  0.38816453    -0.11400
C538        C  0.39798570  0.46532450  0.38356586     0.23900
C539        C  0.41257771  0.47947955  0.34917150    -0.12000
C540        C  0.40774241  0.48878320  0.32141122     0.05400
C541        C  0.40351464  0.45673916  0.41557023     0.27800
C542        C  0.41977218  0.47086761  0.44778394    -0.12700
C543        C  0.42514189  0.46276611  0.47786625     0.05900
C544        C  0.41249239  0.43965948  0.47925858    -0.08600
C545        C  0.39415185  0.42519230  0.44981044     0.06700
C546        C  0.39102928  0.43395633  0.41619693    -0.13000
Br547      Br  0.43908733  0.48596494  0.34000674    -0.05100
Br548      Br  0.34125030  0.45156077  0.35790379     0.00500
Br549      Br  0.45095089  0.48458256  0.51357369     0.01000
Br550      Br  0.36982927  0.41477256  0.36999204    -0.03400
Br551      Br  0.43136459  0.51398164  0.28618000     0.01100
Br552      Br  0.35943844  0.44288950  0.43893365    -0.02700
Br553      Br  0.43471555  0.50154947  0.45035435    -0.03600
Br554      Br  0.37156667  0.39311438  0.45613266     0.00400
C555        C  0.42418983  0.44280804  0.08105020     0.01800
C556        C  0.43934293  0.46090999  0.11030237     0.04700
C557        C  0.43160575  0.46633642  0.14149205    -0.11400
C558        C  0.40914626  0.45530847  0.14112747     0.23900
C559        C  0.39398820  0.43686876  0.11332231    -0.12000
C560        C  0.40113420  0.42931826  0.08751228     0.05400
C561        C  0.40171859  0.46346165  0.16897737     0.27800
C562        C  0.38639400  0.45038935  0.20334454    -0.12700
C563        C  0.37811386  0.45751891  0.22676429     0.05900
C564        C  0.38770108  0.47935599  0.22108669    -0.08600
C565        C  0.40421110  0.49291126  0.18829562     0.06700
C566        C  0.40982854  0.48439060  0.16054525    -0.13000
Br567      Br  0.36372730  0.42278799  0.10755612    -0.05100
Br568      Br  0.47074772  0.47934120  0.10813270     0.00500
Br569      Br  0.35184318  0.43608282  0.26179191     0.01000
Br570      Br  0.42795491  0.50110953  0.10955067    -0.03400
Br571      Br  0.37906755  0.39883454  0.06810291     0.01100
Br572      Br  0.45190590  0.48942264  0.18421805    -0.02700
Br573      Br  0.37679688  0.42270540  0.21861728    -0.03600
Br574      Br  0.42061035  0.52383699  0.18221742     0.00400
C575        C  0.42210844  0.88383598  0.45069611     0.01800
C576        C  0.43465862  0.89180173  0.41148824     0.04700
C577        C  0.42941180  0.87673849  0.37963416    -0.11400
C578        C  0.41178960  0.85363193  0.38643549     0.23900
C579        C  0.39872493  0.84560818  0.42438985    -0.12000
C580        C  0.40362304  0.86059479  0.45597563     0.05400
C581        C  0.40760048  0.83768955  0.35483061     0.27800
C582        C  0.39024786  0.82647281  0.32407170    -0.12700
C583        C  0.38468753  0.80953218  0.29768526     0.05900
C584        C  0.39708701  0.80426425  0.30040228    -0.08600
C585        C  0.41474879  0.81594068  0.33109189     0.06700
C586        C  0.42005239  0.83262470  0.35768876    -0.13000
Br587      Br  0.37470542  0.81387093  0.43398522    -0.05100
Br588      Br  0.46006065  0.92327166  0.40146453     0.00500
Br589      Br  0.35816139  0.79176142  0.26277886     0.01000
Br590      Br  0.44394172  0.84802111  0.39963399    -0.03400
Br591      Br  0.38465084  0.84892663  0.00606739     0.01100
Br592      Br  0.44706426  0.88760487  0.32725821    -0.02700
Br593      Br  0.37356049  0.83387649  0.31967785    -0.03600
Br594      Br  0.43096531  0.80826132  0.33994210     0.00400
C595        C  0.40144093  0.80195996  0.20008770     0.01800
C596        C  0.42459249  0.82162013  0.19894381     0.04700
C597        C  0.43334938  0.83856572  0.16843995    -0.11400
C598        C  0.41960729  0.83485482  0.13525976     0.23900
C599        C  0.39714446  0.81426668  0.13303081    -0.12000
C600        C  0.38785259  0.79842901  0.16626113     0.05400
C601        C  0.42753246  0.85312776  0.10573739     0.27800
C602        C  0.41987161  0.86301062  0.11309283    -0.12700
C603        C  0.42466087  0.87830504  0.08306345     0.05900
C604        C  0.43808034  0.88480367  0.04618932    -0.08600
C605        C  0.44656181  0.87562951  0.03975394     0.06700
C606        C  0.44080741  0.85934662  0.06881612    -0.13000
Br607      Br  0.37907951  0.80799240  0.08404607    -0.05100
Br608      Br  0.44494751  0.82439300  0.23455671     0.00500
Br609      Br  0.41155357  0.88921357  0.09215525     0.01000
Br610      Br  0.45045566  0.84508065  0.05751037    -0.03400
Br611      Br  0.35629407  0.77218642  0.16440448     0.01100
Br612      Br  0.46408826  0.86693142  0.17230121    -0.02700
Br613      Br  0.40220086  0.85507996  0.16429587    -0.03600
Br614      Br  0.46620409  0.88564695  0.49150143     0.00400
N615        N  0.43030751  0.89891705  0.98708660    -0.03000
C616        C  0.43634214  0.91859321  0.98386798    -0.00400
C617        C  0.45563003  0.93482804  0.50777204    -0.23300
C618        C  0.46039756  0.92453366  0.52926267    -0.23500
C619        C  0.44438382  0.90245180  0.51689038    -0.00500
H620        H  0.46323836  0.95141491  0.51484448     0.13300
H621        H  0.47237900  0.93170404  0.55539284     0.13300
N622        N  0.43159796  0.43876877  0.54358875    -0.03000
C623        C  0.43998760  0.42976236  0.54724433    -0.00400
C624        C  0.42896020  0.41256184  0.01729815    -0.23300
C625        C  0.41830318  0.41461459  0.98875029    -0.23500
C626        C  0.42013458  0.43091534  0.50486151    -0.00500
H627        H  0.43298779  0.40340414  0.00917807     0.13300
H628        H  0.41188576  0.40648792  0.95735885     0.13300
C629        C  0.39198618  0.78349644  0.73142575     0.02800
C630        C  0.38952718  0.78432482  0.77718581     0.02700
C631        C  0.37972408  0.76546359  0.80287141    -0.17800
C632        C  0.37279311  0.74616995  0.78493471     0.02800
C633        C  0.37525850  0.74544753  0.73953234     0.02700
C634        C  0.38505290  0.76412994  0.71381724    -0.17800
H635        H  0.38708176  0.76346794  0.67920680     0.04800
H636        H  0.37756698  0.76586153  0.83751881     0.04800
O637        O  0.28540060  0.59320512  0.96204904    -0.84900
O638        O  0.24543022  0.55084293  0.98125885    -0.81900
C639        C  0.24199415  0.53665445  0.95712305     0.98600
O640        O  0.25402260  0.53319747  0.95972469    -0.81900
O641        O  0.29122308  0.54191599  0.97740260    -0.84600
C642        C  0.30705212  0.55758081  0.95298198     1.03100
O643        O  0.31516936  0.57687438  0.95666709    -0.77300
O644        O  0.31939713  0.61092003  0.98092608    -0.77500
C645        C  0.30612080  0.60979450  0.95878384     1.03100
O646        O  0.29535071  0.60354738  0.55318463    -0.84900
O647        O  0.25621863  0.56040187  0.57191196    -0.81900
C648        C  0.24183276  0.53949203  0.57385211     0.98600
O649        O  0.24378390  0.52869467  0.55054226    -0.81900
O650        O  0.28313247  0.54043250  0.56880742    -0.84600
C651        C  0.30367210  0.55196116  0.57006363     1.03100
O652        O  0.31727960  0.56892093  0.54605870    -0.77400
O653        O  0.31799542  0.60038778  0.57027608    -0.77500
C654        C  0.31118036  0.60932093  0.57584433     1.03100
Cr655      Cr  0.27175315  0.57625924  0.51694157     1.93700
Cr656      Cr  0.26937980  0.53848344  0.51434997     1.93200
Cr657      Cr  0.31496252  0.58757656  0.51354719     1.39100
O658        O  0.28532828  0.56742527  0.51499432    -1.22600
C659        C  0.37961605  0.48777035  0.74602563     0.02800
C660        C  0.38024732  0.48968066  0.79252809     0.02700
C661        C  0.37355296  0.49927655  0.81158241    -0.17800
C662        C  0.36536679  0.50600670  0.78665247     0.02800
C663        C  0.36480878  0.50416780  0.74075358     0.02700
C664        C  0.37153369  0.49481160  0.72133303    -0.17800
H665        H  0.37056652  0.49310339  0.68617921     0.04800
H666        H  0.37431125  0.50115568  0.84667141     0.04800
C667        C  0.10339648  0.46746309  0.74788029     0.02800
C668        C  0.10442346  0.46821100  0.79398975     0.02700
C669        C  0.08644683  0.46135807  0.81783556    -0.17800
C670        C  0.06716785  0.45366631  0.79783707     0.02800
C671        C  0.06596624  0.45291971  0.75128404     0.02700
C672        C  0.08392939  0.45918869  0.72746944    -0.17800
H673        H  0.08317870  0.45859395  0.69219870     0.04800
H674        H  0.08750371  0.46201461  0.85310060     0.04800
N675        N  0.95227399  0.42091252  0.54952803    -0.03000
C676        C  0.95104905  0.41237122  0.51022144    -0.00400
C677        C  0.93016946  0.39956868  0.99243700    -0.23300
C678        C  0.91827172  0.40006574  0.52073201    -0.23500
C679        C  0.93289103  0.41572439  0.55270700    -0.00500
H680        H  0.92459330  0.39229197  0.96022966     0.13300
H681        H  0.90269347  0.39431411  0.01158782     0.13300
N682        N  0.91339930  0.42793062  0.55521316    -0.03000
C683        C  0.93299349  0.43344733  0.55525162    -0.00400
C684        C  0.94657495  0.44924520  0.52279470    -0.23300
C685        C  0.93345330  0.44889034  0.99648778    -0.23500
C686        C  0.91296135  0.43553885  0.51641246    -0.00500
H687        H  0.96218962  0.45548407  0.01179577     0.13300
H688        H  0.93790383  0.45576371  0.96398980     0.13300
N689        N  0.47323834  0.43545888  0.54191646    -0.03000
C690        C  0.46470810  0.44421346  0.54633805    -0.00400
C691        C  0.47786062  0.46367447  0.52187115    -0.23300
C692        C  0.49339978  0.46598760  0.00005757    -0.23500
C693        C  0.48946614  0.44784295  0.51107087    -0.00500
H694        H  0.47403129  0.47291077  0.01367717     0.13300
H695        H  0.50362288  0.47735937  0.97337312     0.13300
C696        C  0.79183003  0.37597671  0.75768790     0.02800
C697        C  0.78971359  0.37439562  0.80411350     0.02700
C698        C  0.76848686  0.36180364  0.82273569    -0.17800
C699        C  0.74960486  0.35160924  0.79722931     0.02800
C700        C  0.75181586  0.35378297  0.75135820     0.02700
C701        C  0.77279019  0.36604446  0.73241807    -0.17800
H702        H  0.77427014  0.36770916  0.69726515     0.04800
H703        H  0.76664225  0.36000279  0.85784321     0.04800
C704        C  0.51050273  0.37472582  0.75068832     0.02800
C705        C  0.51157439  0.37467481  0.79703638     0.02700
C706        C  0.51710521  0.36424463  0.81670813    -0.17800
C707        C  0.52197583  0.35426948  0.79218381     0.02800
C708        C  0.52153621  0.35491356  0.74600487     0.02700
C709        C  0.51543062  0.36473552  0.72624547    -0.17800
H710        H  0.51494136  0.36501462  0.69097969     0.04800
H711        H  0.51751614  0.36378728  0.85195204     0.04800
O712        O  0.56146110  0.22930220  0.98138940    -0.84900
O713        O  0.60488208  0.26618456  0.99772060    -0.81900
C714        C  0.61175988  0.27948194  0.96676523     0.98600
O715        O  0.60486967  0.28855002  0.96280351    -0.81900
O716        O  0.57727944  0.29542327  0.97328530    -0.84600
C717        C  0.55977783  0.28105696  0.95092921     1.03100
O718        O  0.54747607  0.26065504  0.95781187    -0.77300
O719        O  0.53114309  0.22156410  0.99202291    -0.77500
C720        C  0.54103767  0.21707596  0.97496618     1.03100
O721        O  0.55063977  0.22513181  0.57137594    -0.84900
O722        O  0.59463683  0.26517886  0.58665713    -0.81900
C723        C  0.61312163  0.28514129  0.58241588     0.98600
O724        O  0.61505969  0.29668447  0.55291885    -0.81900
O725        O  0.58426283  0.29889379  0.56480608    -0.84600
C726        C  0.56531875  0.29192745  0.56622104     1.03100
O727        O  0.54920393  0.27540260  0.54360758    -0.77400
O728        O  0.53523454  0.23737024  0.57770130    -0.77500
C729        C  0.53678517  0.22437770  0.58925354     1.03100
Cr730      Cr  0.57729100  0.24771826  0.53363032     1.93700
Cr731      Cr  0.59356760  0.29254643  0.51404386     1.93200
Cr732      Cr  0.54315788  0.24991726  0.51803846     1.39100
O733        O  0.57126059  0.26335160  0.52222841    -1.22600
C734        C  0.46777364  0.08613793  0.73877822     0.02800
C735        C  0.47266986  0.08632225  0.78307968     0.02700
C736        C  0.46914280  0.06869672  0.79948985    -0.17800
C737        C  0.46067136  0.05057651  0.77339771     0.02800
C738        C  0.45539688  0.05006943  0.72902957     0.02700
C739        C  0.45872785  0.06769734  0.71277292    -0.17800
H740        H  0.45498268  0.06744254  0.67886623     0.04800
H741        H  0.47307602  0.06909330  0.83334153     0.04800
N742        N  0.42593812  0.93955471  0.98146720    -0.03000
C743        C  0.41072119  0.93592294  0.50774295    -0.00400
C744        C  0.39367031  0.91356347  0.51756579    -0.23300
C745        C  0.39920137  0.90335427  0.49939586    -0.23500
C746        C  0.41983572  0.91981604  0.97988788    -0.00500
H747        H  0.38055852  0.90611783  0.54119334     0.13300
H748        H  0.39103582  0.88664059  0.50696085     0.13300
C749        C  0.45672330  0.03235692  0.79527888     0.01800
C750        C  0.43643401  0.01532904  0.81740773     0.04700
C751        C  0.43329638  0.99948976  0.84258620    -0.11400
C752        C  0.45077662  0.00102333  0.84810194     0.23900
C753        C  0.47120850  0.01819449  0.82660390    -0.12000
C754        C  0.47448126  0.03432325  0.80201016     0.05400
C755        C  0.44806485  0.98580676  0.87967687     0.27800
C756        C  0.45768311  0.99344275  0.92163637    -0.12700
C757        C  0.45257165  0.97838674  0.95336033     0.05900
C758        C  0.43617689  0.95521944  0.94520843    -0.08600
C759        C  0.42770265  0.94779587  0.90191504     0.06700
C760        C  0.43431493  0.96320434  0.86922984    -0.13000
Br761      Br  0.49486595  0.01981435  0.83158705    -0.05100
Br762      Br  0.41429004  0.01590748  0.82021320     0.00500
Br763      Br  0.46877130  0.98970756  0.50743572     0.01000
Br764      Br  0.42389789  0.95341728  0.80998457    -0.03400
Br765      Br  0.50431300  0.06104409  0.78468775     0.01100
Br766      Br  0.40505900  0.97610236  0.87094491    -0.02700
Br767      Br  0.47683320  0.02438740  0.93678881    -0.03600
Br768      Br  0.40593446  0.91661198  0.88631983     0.00400
C769        C  0.41656500  0.95283160  0.53912139     0.01800
C770        C  0.41146751  0.96496655  0.53018236     0.04700
C771        C  0.41778438  0.98134656  0.55978385    -0.11400
C772        C  0.42691575  0.98385004  0.60074745     0.23900
C773        C  0.43018400  0.97035108  0.61128794    -0.12000
C774        C  0.42619212  0.95587395  0.57993747     0.05400
C775        C  0.43394530  0.00106751  0.63257215     0.27800
C776        C  0.45680678  0.02040133  0.63891623    -0.12700
C777        C  0.46374895  0.03585585  0.67154636     0.05900
C778        C  0.44788345  0.03250136  0.69747937    -0.08600
C779        C  0.42496696  0.01405624  0.68837290     0.06700
C780        C  0.41804686  0.99777014  0.65790382    -0.13000
Br781      Br  0.44003096  0.97165683  0.66922890    -0.05100
Br782      Br  0.39478660  0.95822186  0.97877869     0.00500
Br783      Br  0.49505736  0.06249099  0.67767351     0.01000
Br784      Br  0.38680038  0.97065949  0.65150059    -0.03400
Br785      Br  0.43540743  0.94150805  0.59308888     0.01100
Br786      Br  0.41448545  0.00069548  0.54391476    -0.02700
Br787      Br  0.47865439  0.02580134  0.60228690    -0.03600
Br788      Br  0.40305079  0.01233804  0.71290618     0.00400
C789        C  0.48180949  0.10481411  0.81324478     0.01800
C790        C  0.50422480  0.12558042  0.80962451     0.04700
C791        C  0.51249346  0.14337661  0.83669800    -0.11400
C792        C  0.49870194  0.14018883  0.86884472     0.23900
C793        C  0.47689313  0.11905934  0.87490030    -0.12000
C794        C  0.46849009  0.10129872  0.84745979     0.05400
C795        C  0.50775169  0.15882101  0.89802451     0.27800
C796        C  0.51947313  0.16273307  0.93576565    -0.12700
C797        C  0.52964241  0.18142995  0.96175032     0.05900
C798        C  0.52846752  0.19650878  0.94955925    -0.08600
C799        C  0.51584821  0.19202436  0.91284474     0.06700
C800        C  0.50535576  0.17305099  0.88725884    -0.13000
Br801      Br  0.45885771  0.11452049  0.92156128    -0.05100
Br802      Br  0.52442258  0.12897354  0.77168030     0.00500
Br803      Br  0.54446643  0.18583356  0.01500780     0.01000
Br804      Br  0.48784478  0.16651392  0.83721033    -0.03400
Br805      Br  0.43906937  0.07205150  0.85828040     0.01100
Br806      Br  0.54299935  0.17201884  0.83098748    -0.02700
Br807      Br  0.52172261  0.14250422  0.95148096    -0.03600
Br808      Br  0.51385050  0.21233354  0.89616218     0.00400
C809        C  0.52089369  0.20628392  0.62061536     0.01800
C810        C  0.52827171  0.20689002  0.66214831     0.04700
C811        C  0.51626599  0.18701402  0.68567630    -0.11400
C812        C  0.49687972  0.16651950  0.66756137     0.23900
C813        C  0.48799659  0.16634574  0.62866103    -0.12000
C814        C  0.49992214  0.18626749  0.60537165     0.05400
C815        C  0.48836333  0.14534515  0.68480264     0.27800
C816        C  0.49822877  0.13835355  0.67030030    -0.12700
C817        C  0.49094819  0.11867651  0.68661166     0.05900
C818        C  0.47373825  0.10575621  0.71810897    -0.08600
C819        C  0.46266148  0.11191870  0.72974270     0.06700
C820        C  0.47026099  0.13188803  0.71382892    -0.13000
Br821      Br  0.46060814  0.13850017  0.60530651    -0.05100
Br822      Br  0.55510450  0.23483884  0.68599766     0.00500
Br823      Br  0.50485443  0.10978811  0.66484033     0.01000
Br824      Br  0.45571922  0.14074948  0.73072107    -0.03400
Br825      Br  0.48834832  0.18576522  0.55086045     0.01100
Br826      Br  0.52726418  0.18752733  0.74096895    -0.02700
Br827      Br  0.52177533  0.15585548  0.62737777    -0.03600
Br828      Br  0.43566900  0.09203305  0.76335034     0.00400
C829        C  0.56156944  0.30335302  0.59310464     0.01800
C830        C  0.56063866  0.31754206  0.57312433     0.04700
C831        C  0.55417029  0.32618134  0.59734860    -0.11400
C832        C  0.54862769  0.32069946  0.64174637     0.23900
C833        C  0.54955581  0.30651904  0.66171858    -0.12000
C834        C  0.55604614  0.29790162  0.63745655     0.05400
C835        C  0.54172481  0.32975215  0.66737833     0.27800
C836        C  0.55754204  0.34916392  0.69256610    -0.12700
C837        C  0.55104495  0.35771944  0.71700794     0.05900
C838        C  0.52851861  0.34655191  0.71753565    -0.08600
C839        C  0.51309832  0.32816194  0.68928938     0.06700
C840        C  0.51956400  0.31943330  0.66534593    -0.13000
Br841      Br  0.54095290  0.29816156  0.72184322    -0.05100
Br842      Br  0.56798868  0.32497101  0.51234523     0.00500
Br843      Br  0.57356801  0.38625323  0.74516259     0.01000
Br844      Br  0.49809060  0.29323506  0.62964681    -0.03400
Br845      Br  0.55638804  0.27779731  0.66435055     0.01100
Br846      Br  0.55218961  0.34497054  0.56945661    -0.02700
Br847      Br  0.58825408  0.36423118  0.69276462    -0.03600
Br848      Br  0.48347597  0.31551778  0.68093658     0.00400
C849        C  0.52654341  0.34249860  0.81564261     0.01800
C850        C  0.54467467  0.35396463  0.84503447     0.04700
C851        C  0.54870723  0.34246829  0.86630026    -0.11400
C852        C  0.53574529  0.31993813  0.85609171     0.23900
C853        C  0.51748650  0.30848298  0.82748294    -0.12000
C854        C  0.51199229  0.31931146  0.81022078     0.05400
C855        C  0.54076026  0.30814141  0.87697574     0.27800
C856        C  0.56029604  0.31375883  0.86575299    -0.12700
C857        C  0.56639096  0.30452339  0.88901933     0.05900
C858        C  0.55218623  0.28837012  0.92151849    -0.08600
C859        C  0.53174807  0.28149133  0.93033761     0.06700
C860        C  0.52647920  0.29191940  0.90932202    -0.13000
Br861      Br  0.49986676  0.27789235  0.81175385    -0.05100
Br862      Br  0.56384253  0.38523101  0.85754147     0.00500
Br863      Br  0.59435339  0.31428522  0.87655011     0.01000
Br864      Br  0.50038453  0.28500597  0.92715072    -0.03400
Br865      Br  0.48269920  0.30157125  0.78609511     0.01100
Br866      Br  0.57155179  0.35736186  0.91059744    -0.02700
Br867      Br  0.57889029  0.33444867  0.81884232    -0.03600
Br868      Br  0.51152224  0.25902945  0.97384910     0.00400
C869        C  0.72757526  0.33853403  0.81905494     0.01800
C870        C  0.71083159  0.31499634  0.81706307     0.04700
C871        C  0.68954216  0.30268162  0.83485665    -0.11400
C872        C  0.68513942  0.31375428  0.85642471     0.23900
C873        C  0.70193220  0.33710600  0.85979833    -0.12000
C874        C  0.72314237  0.34942106  0.84197371     0.05400
C875        C  0.66438112  0.30113452  0.88196439     0.27800
C876        C  0.64619716  0.29660328  0.86476464    -0.12700
C877        C  0.62817080  0.28791470  0.89181201     0.05900
C878        C  0.62896392  0.28519753  0.93687285    -0.08600
C879        C  0.64657377  0.28823517  0.95325939     0.06700
C880        C  0.66405612  0.29600591  0.92566808    -0.13000
Br881      Br  0.69593334  0.35209720  0.89085881    -0.05100
Br882      Br  0.71787531  0.29943955  0.79554687     0.00500
Br883      Br  0.60162080  0.27786225  0.86625661     0.01000
Br884      Br  0.68849689  0.30096548  0.94817085    -0.03400
Br885      Br  0.74613836  0.38093284  0.85271627     0.01100
Br886      Br  0.66659875  0.27058666  0.83159363    -0.02700
Br887      Br  0.64656015  0.30334334  0.80471380    -0.03600
Br888      Br  0.64793102  0.28274206  0.51353574     0.00400
C889        C  0.63331063  0.29486216  0.60869994     0.01800
C890        C  0.65496577  0.31602374  0.59709568     0.04700
C891        C  0.67400463  0.32446556  0.61975510    -0.11400
C892        C  0.67190059  0.31316862  0.65608322     0.23900
C893        C  0.65096048  0.29224258  0.66759733    -0.12000
C894        C  0.63189994  0.28260028  0.64297347     0.05400
C895        C  0.69217493  0.32315359  0.68069265     0.27800
C896        C  0.70208335  0.31547884  0.67382034    -0.12700
C897        C  0.72174077  0.32545704  0.69623885     0.05900
C898        C  0.73245250  0.34423644  0.72318296    -0.08600
C899        C  0.72401011  0.35359970  0.72467550     0.06700
C900        C  0.70308498  0.34213851  0.70663614    -0.13000
Br901      Br  0.64877060  0.27644658  0.71641212    -0.05100
Br902      Br  0.66040101  0.33396295  0.54858134     0.00500
Br903      Br  0.73385526  0.31352285  0.68779721     0.01000
Br904      Br  0.68959652  0.35272854  0.71674503    -0.03400
Br905      Br  0.60503046  0.25184678  0.65530871     0.01100
Br906      Br  0.70359693  0.35114170  0.59964746    -0.02700
Br907      Br  0.68912203  0.29189383  0.63217028    -0.03600
Br908      Br  0.74272542  0.38378342  0.74423381     0.00400
C909        C  0.47486360  0.42525356  0.57704809     0.01800
C910        C  0.46763632  0.40449684  0.57092110     0.04700
C911        C  0.47344459  0.39687251  0.60129171    -0.11400
C912        C  0.48534968  0.40918036  0.63954030     0.23900
C913        C  0.49143918  0.42916199  0.64708699    -0.12000
C914        C  0.48731590  0.43772217  0.61514488     0.05400
C915        C  0.49225282  0.40157447  0.67084713     0.27800
C916        C  0.47649722  0.38363158  0.69916410    -0.12700
C917        C  0.48241947  0.37496990  0.72553946     0.05900
C918        C  0.50455015  0.38496421  0.72577322    -0.08600
C919        C  0.52031374  0.40294780  0.69706378     0.06700
C920        C  0.51431706  0.41150235  0.67071265    -0.13000
Br921      Br  0.50617728  0.44517079  0.70095551    -0.05100
Br922      Br  0.45069228  0.38677569  0.52006526     0.00500
Br923      Br  0.45922611  0.34733901  0.75556629     0.01000
Br924      Br  0.53657495  0.43685392  0.63418714    -0.03400
Br925      Br  0.50208539  0.46807821  0.62123116     0.01100
Br926      Br  0.46608441  0.37004251  0.58950106    -0.02700
Br927      Br  0.44662773  0.37079651  0.70127036    -0.03600
Br928      Br  0.54981524  0.41495303  0.69043104     0.00400
C929        C  0.50744850  0.38535238  0.82674623     0.01800
C930        C  0.48987214  0.37219747  0.85763155     0.04700
C931        C  0.48737434  0.38236996  0.88892764    -0.11400
C932        C  0.50225754  0.40567397  0.88974959     0.23900
C933        C  0.51989078  0.41886247  0.85966646    -0.12000
C934        C  0.52290255  0.40883856  0.82925935     0.05400
C935        C  0.49901778  0.41638260  0.92127324     0.27800
C936        C  0.48512293  0.41911412  0.90991403    -0.12700
C937        C  0.48217106  0.42956738  0.93897990     0.05900
C938        C  0.49367409  0.43797840  0.97938386    -0.08600
C939        C  0.50854211  0.43633546  0.98944690     0.06700
C940        C  0.51052502  0.42475759  0.96137546    -0.13000
Br941      Br  0.54014126  0.45085438  0.86086149    -0.05100
Br942      Br  0.46961896  0.34018848  0.85907832     0.00500
Br943      Br  0.46228427  0.43218908  0.92243128     0.01000
Br944      Br  0.52862379  0.41996863  0.97805546    -0.03400
Br945      Br  0.54995695  0.42772874  0.79586240     0.01100
Br946      Br  0.46378010  0.36450211  0.93149773    -0.02700
Br947      Br  0.47011028  0.40839302  0.85416126    -0.03600
Br948      Br  0.52756002  0.45167495  0.53954120     0.00400
C949        C  0.81280480  0.38659451  0.73339527     0.01800
C950        C  0.83274751  0.40957471  0.73706334     0.04700
C951        C  0.85205438  0.41877351  0.71372794    -0.11400
C952        C  0.85067525  0.40607698  0.68130612     0.23900
C953        C  0.83009714  0.38400131  0.67398290    -0.12000
C954        C  0.81211341  0.37383551  0.70225465     0.05400
C955        C  0.87051217  0.41512245  0.65528357     0.27800
C956        C  0.88036651  0.43216075  0.62455892    -0.12700
C957        C  0.89797024  0.43922279  0.59854065     0.05900
C958        C  0.90214685  0.42590952  0.59426690    -0.08600
C959        C  0.89314209  0.40954372  0.62690471     0.06700
C960        C  0.87851021  0.40529944  0.65878635    -0.13000
Br961      Br  0.82614562  0.36777376  0.62380908    -0.05100
Br962      Br  0.83336190  0.42927251  0.76936874     0.00500
Br963      Br  0.91868847  0.46910163  0.57613475     0.01000
Br964      Br  0.86836737  0.38512740  0.70642274    -0.03400
Br965      Br  0.78749716  0.34194219  0.69951482     0.01100
Br966      Br  0.88031028  0.44864632  0.72662753    -0.02700
Br967      Br  0.86862139  0.44451593  0.61428379    -0.03600
Br968      Br  0.89917696  0.39176006  0.62839646     0.00400
C969        C  0.89287176  0.42826812  0.99386327     0.01800
C970        C  0.87145706  0.40581845  0.99575604     0.04700
C971        C  0.85430477  0.39836485  0.96715405    -0.11400
C972        C  0.85863015  0.41242662  0.93417981     0.23900
C973        C  0.87924714  0.43486866  0.93323404    -0.12000
C974        C  0.89583816  0.44305795  0.96414360     0.05400
C975        C  0.84165241  0.40339418  0.89980509     0.27800
C976        C  0.83729848  0.38891900  0.86762636    -0.12700
C977        C  0.81989073  0.37879501  0.83742204     0.05900
C978        C  0.80874552  0.38541532  0.83507508    -0.08600
C979        C  0.81410334  0.40093192  0.86627636     0.06700
C980        C  0.82953708  0.40885615  0.89974909    -0.13000
Br981      Br  0.88515225  0.45418273  0.88774358    -0.05100
Br982      Br  0.86490951  0.38375364  0.53339032     0.00500
Br983      Br  0.80963083  0.35384203  0.80418017     0.01000
Br984      Br  0.83358643  0.42661440  0.94660295    -0.03400
Br985      Br  0.92218341  0.47490071  0.96484038     0.01100
Br986      Br  0.82473779  0.36838398  0.97167753    -0.02700
Br987      Br  0.85511762  0.38278211  0.86526354    -0.03600
Br988      Br  0.80113920  0.41229382  0.86324862     0.00400
C989        C  0.96960800  0.41743267  0.98561425     0.01800
C990        C  0.96440855  0.40118328  0.95653425     0.04700
C991        C  0.97978955  0.40735155  0.92451784    -0.11400
C992        C  0.00162921  0.42883897  0.92455442     0.23900
C993        C  0.00783303  0.44432243  0.95633781    -0.12000
C994        C  0.99172631  0.43919940  0.98494565     0.05400
C995        C  0.01805222  0.43498519  0.89134016     0.27800
C996        C  0.02641809  0.42554684  0.89329171    -0.12700
C997        C  0.04082358  0.43021960  0.86059128     0.05900
C998        C  0.04909113  0.44638872  0.82796908    -0.08600
C999        C  0.04189750  0.45705027  0.82827030     0.06700
C1000       C  0.02527993  0.45017315  0.85773205    -0.13000
Br1001     Br  0.03858871  0.47286827  0.95998057    -0.05100
Br1002     Br  0.93672035  0.36988453  0.95999311     0.00500
Br1003     Br  0.04876778  0.41388597  0.86080739     0.01000
Br1004     Br  0.01228809  0.46150664  0.85188940    -0.03400
Br1005     Br  0.00038459  0.46335811  0.51867067     0.01100
Br1006     Br  0.97061727  0.38655294  0.87888724    -0.02700
Br1007     Br  0.01862915  0.40666393  0.94178049    -0.03600
Br1008     Br  0.05665232  0.48308021  0.79323553     0.00400
C1009       C  0.04739298  0.44729483  0.72579393     0.01800
C1010       C  0.05245779  0.46254029  0.69421824     0.04700
C1011       C  0.03551202  0.45681331  0.66764975    -0.11400
C1012       C  0.01294574  0.43711542  0.67561600     0.23900
C1013       C  0.00770954  0.42256817  0.70883703    -0.12000
C1014       C  0.02486288  0.42671706  0.73105939     0.05400
C1015       C  0.99500955  0.43135147  0.64761156     0.27800
C1016       C  0.99050176  0.44436419  0.64873291    -0.12700
C1017       C  0.97612354  0.44102688  0.61742688     0.05900
C1018       C  0.96446314  0.42317108  0.58698108    -0.08600
C1019       C  0.96591979  0.40775998  0.59266355     0.06700
C1020       C  0.98261203  0.41301706  0.61904851    -0.13000
Br1021     Br  0.97697565  0.39703266  0.72448368    -0.05100
Br1022     Br  0.08244800  0.49198367  0.68794155     0.00500
Br1023     Br  0.97347727  0.46155517  0.61748271     0.01000
Br1024     Br  0.98917422  0.39562567  0.61365230    -0.03400
Br1025     Br  0.01729484  0.40278699  0.76343914     0.01100
Br1026     Br  0.04340320  0.47571490  0.61909261    -0.02700
Br1027     Br  0.00443003  0.46701761  0.69314702    -0.03600
Br1028     Br  0.94275149  0.37770710  0.57136885     0.00400
C1029       C  0.35742453  0.51493669  0.80910210     0.01800
C1030       C  0.33605370  0.50042666  0.82860340     0.04700
C1031       C  0.32834668  0.50892397  0.84772729    -0.11400
C1032       C  0.34162843  0.53194811  0.84676554     0.23900
C1033       C  0.36297073  0.54649808  0.82763128    -0.12000
C1034       C  0.37123034  0.53811960  0.81101424     0.05400
C1035       C  0.33432451  0.54091246  0.87127670     0.27800
C1036       C  0.31714304  0.53844518  0.85518155    -0.12700
C1037       C  0.30852992  0.54448702  0.88136253     0.05900
C1038       C  0.31748072  0.55357671  0.92310909    -0.08600
C1039       C  0.33562342  0.55738894  0.93789423     0.06700
C1040       C  0.34354130  0.55046087  0.91272381    -0.13000
Br1041     Br  0.38106712  0.57801666  0.82516866    -0.05100
Br1042     Br  0.31749481  0.46898714  0.83242638     0.00500
Br1043     Br  0.28437510  0.54019302  0.86049581     0.01000
Br1044     Br  0.36607496  0.55271175  0.93647841    -0.03400
Br1045     Br  0.40239575  0.55854528  0.79712063     0.01100
Br1046     Br  0.29985207  0.48908112  0.87720417    -0.02700
Br1047     Br  0.30483085  0.52594589  0.79809260    -0.03600
Br1048     Br  0.34978225  0.57201917  0.49284694     0.00400
C1049       C  0.35671708  0.51152629  0.71269847     0.01800
C1050       C  0.37181928  0.53223282  0.69071567     0.04700
C1051       C  0.36390399  0.53980716  0.66789338    -0.11400
C1052       C  0.34099530  0.52712687  0.66817344     0.23900
C1053       C  0.32590221  0.50619406  0.68882277    -0.12000
C1054       C  0.33365519  0.49790783  0.70856670     0.05400
C1055       C  0.33225937  0.53437593  0.64274717     0.27800
C1056       C  0.33260859  0.54991750  0.66008292    -0.12700
C1057       C  0.32272353  0.55531739  0.63680850     0.05900
C1058       C  0.31205455  0.54481974  0.59672659    -0.08600
C1059       C  0.31164634  0.52919347  0.57959913     0.06700
C1060       C  0.32239556  0.52460148  0.60182064    -0.13000
Br1061     Br  0.29447172  0.48872213  0.68954884    -0.05100
Br1062     Br  0.40313618  0.54974226  0.68893714     0.00500
Br1063     Br  0.32344453  0.57683137  0.65982150     0.01000
Br1064     Br  0.32438246  0.50549010  0.57560035    -0.03400
Br1065     Br  0.31267187  0.46683896  0.72337860     0.01100
Br1066     Br  0.38421082  0.56714038  0.63487973    -0.02700
Br1067     Br  0.34704661  0.56409635  0.71511893    -0.03600
Br1068     Br  0.29621553  0.51373907  0.52589093     0.00400
C1069       C  0.12398375  0.47579191  0.81833356     0.01800
C1070       C  0.12948694  0.46365788  0.81524750     0.04700
C1071       C  0.14927712  0.47205549  0.83413183    -0.11400
C1072       C  0.16278780  0.49175490  0.85895251     0.23900
C1073       C  0.15615020  0.50264482  0.86596039    -0.12000
C1074       C  0.13682367  0.49475263  0.84579149     0.05400
C1075       C  0.18346144  0.50069627  0.87992462     0.27800
C1076       C  0.18223828  0.49193030  0.92009151    -0.12700
C1077       C  0.20183964  0.50278254  0.94364743     0.05900
C1078       C  0.22254263  0.52296313  0.92806655    -0.08600
C1079       C  0.22389539  0.53119461  0.88710705     0.06700
C1080       C  0.20438818  0.51977364  0.86259695    -0.13000
Br1081     Br  0.17352559  0.52828590  0.90408247    -0.05100
Br1082     Br  0.10858763  0.43417623  0.79041871     0.00500
Br1083     Br  0.20006187  0.49043612  0.99820887     0.01000
Br1084     Br  0.20607374  0.53094541  0.80650662    -0.03400
Br1085     Br  0.12798510  0.50984311  0.85746008     0.01100
Br1086     Br  0.15779309  0.45649649  0.82656640    -0.02700
Br1087     Br  0.15358677  0.46613441  0.94449575    -0.03600
Br1088     Br  0.25230755  0.55870752  0.86586407     0.00400
C1089       C  0.12317245  0.47693653  0.72072173     0.01800
C1090       C  0.14298924  0.49996267  0.72294028     0.04700
C1091       C  0.16251273  0.50871842  0.70192056    -0.11400
C1092       C  0.16208241  0.49494859  0.67549113     0.23900
C1093       C  0.14183963  0.47240285  0.66971806    -0.12000
C1094       C  0.12243543  0.46336373  0.69225137     0.05400
C1095       C  0.18207477  0.50515062  0.64885544     0.27800
C1096       C  0.18570317  0.51576774  0.60950769    -0.12700
C1097       C  0.20544662  0.52736804  0.58579490     0.06300
C1098       C  0.22134076  0.52753117  0.59999445    -0.08600
C1099       C  0.21743026  0.51635378  0.63875799     0.06700
C1100       C  0.19802129  0.50552368  0.66357791    -0.13000
Br1101     Br  0.14061999  0.45431825  0.62911496    -0.05100
Br1102     Br  0.14261973  0.52024220  0.74868357     0.00500
Br1103     Br  0.21045985  0.54318469  0.53402797     0.01000
Br1104     Br  0.19344963  0.49167896  0.71819918    -0.03400
Br1105     Br  0.09475852  0.43272960  0.68194402     0.01100
Br1106     Br  0.18972970  0.54002961  0.70714474    -0.02700
Br1107     Br  0.16348539  0.51452774  0.58838465    -0.03600
Br1108     Br  0.23917038  0.51678305  0.65857227     0.00400
C1109       C  0.36738369  0.72517127  0.71796945     0.01800
C1110       C  0.34828477  0.71176778  0.69085281     0.04700
C1111       C  0.34006790  0.69197304  0.67282082    -0.11400
C1112       C  0.35095388  0.68545252  0.68113643     0.23900
C1113       C  0.37059427  0.69920789  0.70632117    -0.12000
C1114       C  0.37912107  0.71932510  0.72366964     0.05400
C1115       C  0.34304745  0.66557563  0.65838816     0.27800
C1116       C  0.32410505  0.64398471  0.67356392    -0.12700
C1117       C  0.31402166  0.62529425  0.64726246     0.05900
C1118       C  0.32308494  0.62820642  0.60614802    -0.08600
C1119       C  0.34276531  0.64970012  0.59216952     0.06700
C1120       C  0.35258646  0.66836064  0.61801468    -0.13000
Br1121     Br  0.38621601  0.69084106  0.71528159    -0.05100
Br1122     Br  0.33365142  0.72059248  0.67559772     0.00500
Br1123     Br  0.28748179  0.59578238  0.66673217     0.01000
Br1124     Br  0.37811396  0.69795654  0.59655655    -0.03400
Br1125     Br  0.40831864  0.74016939  0.74973240     0.01100
Br1126     Br  0.31427967  0.67407365  0.63482136    -0.02700
Br1127     Br  0.31129062  0.64026538  0.72910886    -0.03600
Br1128     Br  0.35572059  0.65390571  0.53643936     0.00400
C1129       C  0.36268095  0.72673236  0.81381233     0.01800
C1130       C  0.37595263  0.72746250  0.84333775     0.04700
C1131       C  0.36669279  0.70822028  0.86658658    -0.11400
C1132       C  0.34422422  0.68805004  0.86023236     0.23900
C1133       C  0.33066718  0.68755854  0.83273872    -0.12000
C1134       C  0.33965548  0.70703782  0.81112854     0.05400
C1135       C  0.33436991  0.66779162  0.88509867     0.27800
C1136       C  0.33651966  0.65378873  0.87000417    -0.12700
C1137       C  0.32672703  0.63438967  0.89336312     0.05900
C1138       C  0.31498977  0.62908411  0.93214677    -0.08600
C1139       C  0.31286512  0.64312474  0.94721225     0.06700
C1140       C  0.32271539  0.66251542  0.92399831    -0.13000
Br1141     Br  0.29963075  0.66014774  0.82521097    -0.05100
Br1142     Br  0.40660477  0.75473565  0.85369785     0.00500
Br1143     Br  0.32869101  0.61463771  0.87170172     0.01000
Br1144     Br  0.32098159  0.68240302  0.94620971    -0.03400
Br1145     Br  0.31985111  0.70742281  0.78274346     0.01100
Br1146     Br  0.38456469  0.70940601  0.90800108    -0.02700
Br1147     Br  0.35339087  0.66156791  0.81799868    -0.03600
Br1148     Br  0.29689359  0.63621752  0.00028431     0.00400
C1149       C  0.38657521  0.48108387  0.82303943     0.01800
C1150       C  0.37153781  0.46576411  0.85640586     0.04700
C1151       C  0.37794936  0.45939887  0.88817048    -0.11400
C1152       C  0.39798483  0.46532175  0.88356872     0.23900
C1153       C  0.41257699  0.47947763  0.84917535    -0.12000
C1154       C  0.40774228  0.48878274  0.82141868     0.05400
C1155       C  0.40351346  0.45673554  0.91557052     0.27800
C1156       C  0.41977124  0.47086347  0.94778393    -0.12700
C1157       C  0.42514033  0.46276117  0.97786514     0.05900
C1158       C  0.41248972  0.43965423  0.97925708    -0.08600
C1159       C  0.39414897  0.42518763  0.94980928     0.06700
C1160       C  0.39102710  0.43395244  0.91619639    -0.13000
Br1161     Br  0.43908617  0.48596248  0.84000749    -0.05100
Br1162     Br  0.34125060  0.45156060  0.85791465     0.00500
Br1163     Br  0.45094998  0.48457723  0.01357123     0.01000
Br1164     Br  0.36982621  0.41476934  0.86999217    -0.03400
Br1165     Br  0.43136505  0.51398273  0.78619113     0.01100
Br1166     Br  0.35943887  0.44288753  0.93894026    -0.02700
Br1167     Br  0.43471552  0.50154568  0.95035601    -0.03600
Br1168     Br  0.37156243  0.39310970  0.95613175     0.00400
C1169       C  0.42419298  0.44281330  0.58105235     0.01800
C1170       C  0.43934561  0.46091479  0.61030580     0.04700
C1171       C  0.43160778  0.46633999  0.64149692    -0.11400
C1172       C  0.40914809  0.45531142  0.64113268     0.23900
C1173       C  0.39399046  0.43687210  0.61332643    -0.12000
C1174       C  0.40113718  0.42932276  0.58751459     0.05400
C1175       C  0.40171990  0.46346371  0.66898408     0.27800
C1176       C  0.38639550  0.45039081  0.70335122    -0.12700
C1177       C  0.37811512  0.45751974  0.72677274     0.05900
C1178       C  0.38770183  0.47935671  0.72109653    -0.08600
C1179       C  0.40421204  0.49291273  0.68830617     0.06700
C1180       C  0.40982970  0.48439276  0.66055417    -0.13000
Br1181     Br  0.36372905  0.42279008  0.60756180    -0.05100
Br1182     Br  0.47075061  0.47934696  0.60813683     0.00500
Br1183     Br  0.35184513  0.43608309  0.76180178     0.01000
Br1184     Br  0.42795636  0.50111296  0.60956060    -0.03400
Br1185     Br  0.37907134  0.39883935  0.56810330     0.01100
Br1186     Br  0.45190726  0.48942531  0.68422489    -0.02700
Br1187     Br  0.37679913  0.42270701  0.71862171    -0.03600
Br1188     Br  0.42061136  0.52383863  0.68223147     0.00400
C1189       C  0.42210387  0.88383196  0.95069094     0.01800
C1190       C  0.43465314  0.89179856  0.91148164     0.04700
C1191       C  0.42940709  0.87673595  0.87962682    -0.11400
C1192       C  0.41178575  0.85362924  0.88642762     0.23900
C1193       C  0.39872120  0.84560468  0.92438244    -0.12000
C1194       C  0.40361926  0.86059063  0.95597006     0.05400
C1195       C  0.40759779  0.83768768  0.85482214     0.27800
C1196       C  0.39024486  0.82646992  0.82406364    -0.12700
C1197       C  0.38468582  0.80953001  0.79767679     0.05900
C1198       C  0.39708658  0.80426354  0.80039375    -0.08600
C1199       C  0.41474870  0.81594106  0.83108272     0.06700
C1200       C  0.42005131  0.83262465  0.85767928    -0.13000
Br1201     Br  0.37470195  0.81386725  0.93397584    -0.05100
Br1202     Br  0.46005258  0.92326890  0.90145598     0.00500
Br1203     Br  0.35815989  0.79175833  0.76276940     0.01000
Br1204     Br  0.44394157  0.84802291  0.89962278    -0.03400
Br1205     Br  0.38465340  0.84893177  0.50607061     0.01100
Br1206     Br  0.44705970  0.88760351  0.82725079    -0.02700
Br1207     Br  0.37355528  0.83387111  0.81967105    -0.03600
Br1208     Br  0.43096665  0.80826334  0.83993336     0.00400
C1209       C  0.40144202  0.80195870  0.70008088     0.01800
C1210       C  0.42459370  0.82161836  0.69893775     0.04700
C1211       C  0.43335109  0.83856523  0.66843707    -0.11400
C1212       C  0.41960939  0.83485578  0.63525790     0.23900
C1213       C  0.39714665  0.81426759  0.63302634    -0.12000
C1214       C  0.38785423  0.79842868  0.66625431     0.05400
C1215       C  0.42753500  0.85312980  0.60573845     0.27800
C1216       C  0.41987355  0.86301201  0.61309553    -0.12700
C1217       C  0.42466291  0.87830713  0.58306800     0.05900
C1218       C  0.43808304  0.88480702  0.54619429    -0.08600
C1219       C  0.44656498  0.87563343  0.53975723     0.06700
C1220       C  0.44081064  0.85935001  0.56881753    -0.13000
Br1221     Br  0.37908272  0.80799489  0.58404110    -0.05100
Br1222     Br  0.44494810  0.82438811  0.73454531     0.00500
Br1223     Br  0.41155468  0.88921468  0.59216108     0.01000
Br1224     Br  0.45045987  0.84508512  0.55750943    -0.03400
Br1225     Br  0.35629595  0.77218545  0.66439376     0.01100
Br1226     Br  0.46409000  0.86693057  0.67230175    -0.02700
Br1227     Br  0.40220185  0.85507947  0.66429812    -0.03600
Br1228     Br  0.46620057  0.88564172  0.99149832     0.00400
loop_ 
_geom_bond_atom_site_label_1 
_geom_bond_atom_site_label_2 
_geom_bond_distance 
_geom_bond_site_symmetry_2 
_ccdc_geom_bond_type 
N1            C2   1.367       .  A
N1          C619   1.361       .  A
N1          C575   1.454       .  S
C2          C132   1.490       .  S
C2          C617   1.385       .  A
C3            C4   1.372       .  A
C3          C616   1.385   1_554  A
C3            H6   1.080       .  S
C4            C5   1.378       .  A
C4            H7   1.082       .  S
C5          N615   1.361   1_554  A
C5          C604   1.490       .  S
N8           C12   1.373       .  A
N8            C9   1.379       .  A
N8          C555   1.467       .  S
C9           C76   1.506       .  S
C9          C624   1.385       .  A
C10          C11   1.361       .  A
C10         C623   1.385       .  A
C10          H13   1.084       .  S
C11         C626   1.377       .  A
C11          H14   1.081       .  S
C12        C1158   1.515   1_554  S
C12         C625   1.377   1_554  A
C15         C595   1.502       .  S
C15          C16   1.430       .  A
C15          C20   1.409       .  A
C16         C584   1.503       .  S
C16          C17   1.415       .  A
C17          C18   1.407       .  A
C17          H22   1.084       .  S
C18         C515   1.500       .  S
C18          C19   1.418       .  A
C19         C495   1.494       .  S
C19          C20   1.404       .  A
C20          H21   1.085       .  S
O23          C31   1.256       .  A
O23        Cr655   1.974       .  S
O24          C25   1.264       .  A
O24        Cr655   2.003       .  S
C25         C464   1.467       .  S
C25          O26   1.256       .  A
O26        Cr656   1.972       .  S
O27          C28   1.268       .  A
O27        Cr656   2.018       .  S
C28         C424   1.478       .  S
C28          O29   1.258       .  A
O29        Cr657   1.977       .  S
O30          C31   1.264       .  A
O30        Cr657   2.013       .  S
C31         C524   1.478       .  S
O32          C40   1.266       .  A
O32         Cr41   2.010       .  S
O33          C34   1.257       .  A
O33         Cr41   1.972       .  S
C34         C484   1.485       .  S
C34          O35   1.268       .  A
O35         Cr42   2.027       .  S
O36          C37   1.260       .  A
O36         Cr42   1.980       .  S
C37         C444   1.475       .  S
C37          O38   1.264       .  A
O38         Cr43   2.006       .  S
O39          C40   1.258       .  A
O39         Cr43   1.973       .  S
C40         C504   1.471       .  S
Cr41        O637   1.974   1_554  S
Cr41        O638   2.003   1_554  S
Cr41         O44   1.777       .  S
Cr42        O640   1.972   1_554  S
Cr42        O641   2.018   1_554  S
Cr42         O44   1.782       .  S
Cr43        O643   1.977   1_554  S
Cr43        O644   2.013   1_554  S
Cr43         O44   1.779       .  S
C45         C564   1.512       .  S
C45          C46   1.434       .  A
C45          C50   1.415       .  A
C46         C535   1.508       .  S
C46          C47   1.417       .  A
C47          C48   1.406       .  A
C47          H52   1.084       .  S
C48         C415   1.501       .  S
C48          C49   1.415       .  A
C49         C435   1.494       .  S
C49          C50   1.406       .  A
C50          H51   1.084       .  S
C53         C475   1.502       .  S
C53          C54   1.417       .  A
C53          C58   1.407       .  A
C54         C455   1.491       .  S
C54          C55   1.399       .  A
C55          C56   1.405       .  A
C55          H60   1.084       .  S
C56         C384   1.503       .  S
C56          C57   1.431       .  A
C57         C395   1.506       .  S
C57          C58   1.416       .  A
C58          H59   1.084       .  S
N61          C65   1.378       .  A
N61          C62   1.375       .  A
N61         C404   1.468       .  S
C62         C989   1.514   1_554  S
C62         C677   1.376   1_554  A
C63         C676   1.376       .  A
C63         C678   1.360       .  A
C63          H66   1.081       .  S
C64          C65   1.390       .  A
C64         C677   1.360   1_554  A
C64         H681   1.076       .  S
C65          C69   1.510       .  S
H67         C678   1.076       .  S
N68          C72   1.370       .  A
N68          C69   1.377       .  A
N68         C344   1.468       .  S
C69          C70   1.391       .  A
C70         C685   1.363   1_554  A
C70         H687   1.079       .  S
C71         C684   1.363       .  A
C71         C686   1.377       .  A
C71          H74   1.081       .  S
C72         C969   1.512   1_554  S
C72         C685   1.377   1_554  A
H73         C684   1.079       .  S
N75          C79   1.361       .  A
N75          C76   1.372       .  A
N75         C295   1.454       .  S
C76          C77   1.391       .  A
C77         C692   1.369       .  A
C77         H694   1.077       .  S
C78         C691   1.369       .  A
C78         C693   1.375       .  A
C78          H81   1.082       .  S
C79         C938   1.488   1_554  S
C79         C692   1.375       .  A
H80         C691   1.077       .  S
C82         C335   1.508       .  S
C82          C83   1.431       .  A
C82          C87   1.413       .  A
C83         C364   1.499       .  S
C83          C84   1.412       .  A
C84          C85   1.403       .  A
C84          H89   1.085       .  S
C85         C255   1.498       .  S
C85          C86   1.416       .  A
C86         C284   1.491       .  S
C86          C87   1.405       .  A
C87          H88   1.084       .  S
C90         C304   1.497       .  S
C90          C91   1.426       .  A
C90          C95   1.407       .  A
C91         C315   1.498       .  S
C91          C92   1.407       .  A
C92          C93   1.403       .  A
C92          H97   1.084       .  S
C93         C235   1.497       .  S
C93          C94   1.420       .  A
C94         C224   1.495       .  S
C94          C95   1.402       .  A
C95          H96   1.084       .  S
O98         C106   1.255       .  A
O98        Cr730   1.961       .  S
O99         C100   1.261       .  A
O99        Cr730   1.992       .  S
C100        C264   1.489       .  S
C100        O101   1.268       .  A
O101       Cr731   1.998       .  S
O102        C103   1.264       .  A
O102       Cr731   2.011       .  S
C103        C244   1.484       .  S
C103        O104   1.257       .  A
O104       Cr732   1.979       .  S
O105        C106   1.263       .  A
O105       Cr732   2.005       .  S
C106        C184   1.470       .  S
O107        C115   1.263       .  A
O107       Cr116   2.000       .  S
O108        C109   1.259       .  A
O108       Cr116   1.979       .  S
C109        C275   1.507       .  S
C109        O110   1.260       .  A
O110       Cr117   1.997       .  S
O111        C112   1.265       .  A
O111       Cr117   1.992       .  S
C112        C215   1.477       .  S
C112        O113   1.265       .  A
O113       Cr118   2.005       .  S
O114        C115   1.259       .  A
O114       Cr118   1.983       .  S
C115        C195   1.475       .  S
Cr116       O712   1.961   1_554  S
Cr116       O713   1.992   1_554  S
Cr116       O119   1.775       .  S
Cr117       O715   1.998   1_554  S
Cr117       O716   2.011   1_554  S
Cr117       O119   1.775       .  S
Cr118       O718   1.979   1_554  S
Cr118       O719   2.005   1_554  S
Cr118       O119   1.780       .  S
C120        C204   1.502       .  S
C120        C121   1.419       .  A
C120        C125   1.408       .  A
C121        C175   1.485       .  S
C121        C122   1.403       .  A
C122        C123   1.402       .  A
C122        H127   1.085       .  S
C123        C135   1.497       .  S
C123        C124   1.425       .  A
C124        C164   1.493       .  S
C124        C125   1.410       .  A
C125        H126   1.084       .  S
N128        C132   1.366       .  A
N128        C743   1.365       .  A
N128        C144   1.460       .  S
C129        N742   1.365   1_554  A
C129        C155   1.495       .  S
C129        C130   1.379       .  A
C130        C131   1.371   1_554  A
C130        H133   1.082       .  S
C131        C746   1.384       .  A
C131        H134   1.078   1_556  S
C132        C745   1.384       .  A
C135        C136   1.412       .  A
C135        C140   1.416       .  A
C136        C137   1.409   1_545  A
C136       Br148   1.927       .  S
C137        C138   1.412   1_565  A
C137       Br152   1.926       .  S
C138        C141   1.502   1_545  S
C138        C139   1.411       .  A
C139        C140   1.414       .  A
C139       Br147   1.929       .  S
C140       Br151   1.925       .  S
C141        C142   1.412       .  A
C141        C146   1.408       .  A
C142        C143   1.413       .  A
C142       Br153   1.930   1_565  S
C143        C144   1.412       .  A
C143       Br763   1.922       .  S
C144        C145   1.427       .  A
C145        C146   1.415       .  A
C145       Br154   1.931       .  S
C146       Br150   1.933       .  S
Br149       C757   1.922   1_554  S
C155        C156   1.407       .  A
C155        C160   1.417       .  A
C156        C157   1.414       .  A
C156       Br782   1.918   1_554  S
C157        C158   1.413       .  A
C157       Br172   1.926   1_565  S
C158        C161   1.490   1_565  S
C158        C159   1.404       .  A
C159        C160   1.404       .  A
C159       Br167   1.936       .  S
C160       Br171   1.913       .  S
C161        C162   1.409       .  A
C161        C166   1.408   1_545  A
C162        C163   1.408       .  A
C162       Br173   1.932       .  S
C163        C164   1.414       .  A
C163       Br169   1.923       .  S
C164        C165   1.414       .  A
C165        C166   1.410   1_545  A
C165       Br174   1.923       .  S
C166       Br170   1.929       .  S
Br168       C770   1.918       .  S
C175        C176   1.410       .  A
C175        C180   1.415       .  A
C176        C177   1.404       .  A
C176       Br188   1.925       .  S
C177        C178   1.407       .  A
C177       Br192   1.931       .  S
C178        C181   1.477       .  S
C178        C179   1.406       .  A
C179        C180   1.405       .  A
C179       Br187   1.930       .  S
C180       Br191   1.931       .  S
C181        C182   1.406       .  A
C181        C186   1.408       .  A
C182        C183   1.402       .  A
C182       Br193   1.931       .  S
C183        C184   1.412       .  A
C183       Br189   1.932       .  S
C184        C185   1.410       .  A
C185        C186   1.406       .  A
C185       Br194   1.929       .  S
C186       Br190   1.927       .  S
C195        C196   1.406       .  A
C195        C200   1.410       .  A
C196        C197   1.407       .  A
C196       Br208   1.922       .  S
C197        C198   1.409       .  A
C197       Br212   1.924       .  S
C198        C201   1.487       .  S
C198        C199   1.409       .  A
C199        C200   1.407       .  A
C199       Br207   1.928       .  S
C200       Br211   1.928       .  S
C201        C202   1.407       .  A
C201        C206   1.406       .  A
C202        C203   1.406       .  A
C202       Br213   1.934       .  S
C203        C204   1.416       .  A
C203       Br209   1.927       .  S
C204        C205   1.417       .  A
C205        C206   1.413       .  A
C205       Br214   1.921       .  S
C206       Br210   1.929       .  S
C215        C216   1.410       .  A
C215        C220   1.408       .  A
C216        C217   1.408       .  A
C216       Br228   1.927       .  S
C217        C218   1.410       .  A
C217       Br232   1.930       .  S
C218        C221   1.488       .  S
C218        C219   1.409       .  A
C219        C220   1.409       .  A
C219       Br227   1.927       .  S
C220       Br231   1.925       .  S
C221        C222   1.408       .  A
C221        C226   1.409       .  A
C222        C223   1.408       .  A
C222       Br233   1.930       .  S
C223        C224   1.413       .  A
C223       Br229   1.926       .  S
C224        C225   1.416       .  A
C225        C226   1.409       .  A
C225       Br234   1.933       .  S
C226       Br230   1.930       .  S
C235        C236   1.417       .  A
C235        C240   1.411       .  A
C236        C237   1.411       .  A
C236       Br248   1.933       .  S
C237        C238   1.412       .  A
C237       Br252   1.932       .  S
C238        C241   1.491       .  S
C238        C239   1.409       .  A
C239        C240   1.405       .  A
C239       Br247   1.931       .  S
C240       Br251   1.923       .  S
C241        C242   1.411       .  A
C241        C246   1.411       .  A
C242        C243   1.410       .  A
C242       Br253   1.931       .  S
C243        C244   1.411       .  A
C243       Br249   1.925       .  S
C244        C245   1.415       .  A
C245        C246   1.408       .  A
C245       Br254   1.933       .  S
C246       Br250   1.933       .  S
C255        C256   1.414       .  A
C255        C260   1.416       .  A
C256        C257   1.410       .  A
C256       Br268   1.924       .  S
C257        C258   1.407       .  A
C257       Br272   1.928       .  S
C258        C261   1.483       .  S
C258        C259   1.405       .  A
C259        C260   1.405       .  A
C259       Br267   1.935       .  S
C260       Br271   1.920       .  S
C261        C262   1.407       .  A
C261        C266   1.406       .  A
C262        C263   1.409       .  A
C262       Br273   1.925       .  S
C263        C264   1.412       .  A
C263       Br269   1.927       .  S
C264        C265   1.422       .  A
C265        C266   1.406       .  A
C265       Br888   1.933       .  S
C266       Br270   1.936       .  S
Br274       C879   1.933   1_554  S
C275        C276   1.434       .  A
C275        C280   1.428       .  A
C276        C277   1.405       .  A
C276       Br288   1.942       .  S
C277        C278   1.401       .  A
C277       Br292   1.940       .  S
C278        C281   1.480       .  S
C278        C279   1.403       .  A
C279        C280   1.409       .  A
C279       Br287   1.935       .  S
C280       Br291   1.932       .  S
C281        C282   1.407       .  A
C281        C286   1.407       .  A
C282        C283   1.406       .  A
C282       Br293   1.934       .  S
C283        C284   1.416       .  A
C283       Br289   1.917       .  S
C284        C285   1.408       .  A
C285        C286   1.401       .  A
C285       Br294   1.922       .  S
C286       Br290   1.929       .  S
C295        C296   1.415       .  A
C295        C300   1.420       .  A
C296        C297   1.414       .  A
C296       Br308   1.923       .  S
C297        C298   1.412       .  A
C297       Br312   1.931       .  S
C298        C301   1.496       .  S
C298        C299   1.405       .  A
C299        C300   1.409       .  A
C299       Br307   1.932       .  S
C300       Br311   1.922       .  S
C301        C302   1.408       .  A
C301        C306   1.411       .  A
C302        C303   1.411       .  A
C302       Br313   1.930       .  S
C303        C304   1.414       .  A
C303       Br309   1.922       .  S
C304        C305   1.417       .  A
C305        C306   1.408       .  A
C305       Br314   1.938       .  S
C306       Br310   1.925       .  S
C315        C316   1.420       .  A
C315        C320   1.416       .  A
C316        C317   1.410       .  A
C316       Br328   1.934       .  S
C317        C318   1.406       .  A
C317       Br332   1.930       .  S
C318        C321   1.486       .  S
C318        C319   1.406       .  A
C319        C320   1.408       .  A
C319       Br327   1.932       .  S
C320       Br331   1.920       .  S
C321        C322   1.405       .  A
C321        C326   1.410       .  A
C322        C323   1.406       .  A
C322       Br333   1.933       .  S
C323        C324   1.419       .  A
C323       Br329   1.931       .  S
C324        C693   1.488       .  S
C324        C325   1.406       .  A
C325        C326   1.410       .  A
C325       Br948   1.919       .  S
C326       Br330   1.927       .  S
Br334       C939   1.919   1_554  S
C335        C336   1.417       .  A
C335        C340   1.419       .  A
C336        C337   1.416       .  A
C336       Br348   1.921       .  S
C337        C338   1.414       .  A
C337       Br352   1.929       .  S
C338        C341   1.497       .  S
C338        C339   1.406       .  A
C339        C340   1.403       .  A
C339       Br347   1.934       .  S
C340       Br351   1.922       .  S
C341        C342   1.406       .  A
C341        C346   1.413       .  A
C342        C343   1.404       .  A
C342       Br353   1.930       .  S
C343        C344   1.419       .  A
C343       Br349   1.922       .  S
C344        C345   1.422       .  A
C345        C346   1.417       .  A
C345       Br354   1.921       .  S
C346       Br350   1.934       .  S
C355        C686   1.512       .  S
C355        C356   1.426       .  A
C355        C360   1.428       .  A
C356        C357   1.411       .  A
C356       Br982   1.925       .  S
C357        C358   1.405       .  A
C357       Br372   1.936       .  S
C358        C361   1.488       .  S
C358        C359   1.404       .  A
C359        C360   1.408       .  A
C359       Br367   1.936       .  S
C360       Br371   1.936       .  S
C361        C362   1.410       .  A
C361        C366   1.405       .  A
C362        C363   1.408       .  A
C362       Br373   1.931       .  S
C363        C364   1.413       .  A
C363       Br369   1.921       .  S
C364        C365   1.421       .  A
C365        C366   1.406       .  A
C365       Br374   1.924       .  S
C366       Br370   1.934       .  S
Br368       C970   1.925   1_554  S
C375        C676   1.514       .  S
C375        C376   1.429       .  A
C375        C380   1.423       .  A
C376        C377   1.409       .  A
C376       Br388   1.937       .  S
C377        C378   1.405   1_655  A
C377       Br392   1.936       .  S
C378        C381   1.495       .  S
C378        C379   1.408       .  A
C379        C380   1.414   1_455  A
C379       Br387   1.933       .  S
C380      Br1005   1.924   1_655  S
C381        C382   1.408       .  A
C381        C386   1.411       .  A
C382        C383   1.408       .  A
C382       Br393   1.933       .  S
C383        C384   1.423       .  A
C383       Br389   1.937       .  S
C384        C385   1.415       .  A
C385        C386   1.411       .  A
C385       Br394   1.925       .  S
C386       Br390   1.930       .  S
Br391       C994   1.924   1_454  S
C395        C396   1.422       .  A
C395        C400   1.415       .  A
C396        C397   1.410       .  A
C396       Br408   1.937       .  S
C397        C398   1.410       .  A
C397       Br412   1.934       .  S
C398        C401   1.500   1_455  S
C398        C399   1.413       .  A
C399        C400   1.412       .  A
C399       Br407   1.931   1_455  S
C400       Br411   1.925       .  S
C401        C402   1.412       .  A
C401        C406   1.407       .  A
C402        C403   1.418       .  A
C402       Br413   1.933   1_655  S
C403        C404   1.424       .  A
C403       Br409   1.921       .  S
C404        C405   1.418       .  A
C405        C406   1.405       .  A
C405       Br414   1.923       .  S
C406       Br410   1.932       .  S
C415        C416   1.416       .  A
C415        C420   1.411       .  A
C416        C417   1.409       .  A
C416       Br428   1.919       .  S
C417        C418   1.407       .  A
C417       Br432   1.935       .  S
C418        C421   1.490       .  S
C418        C419   1.410       .  A
C419        C420   1.410       .  A
C419       Br427   1.929       .  S
C420       Br431   1.923       .  S
C421        C422   1.413       .  A
C421        C426   1.410       .  A
C422        C423   1.412       .  A
C422       Br433   1.927       .  S
C423        C424   1.408       .  A
C423       Br429   1.928       .  S
C424        C425   1.411       .  A
C425        C426   1.405       .  A
C425      Br1048   1.927       .  S
C426       Br430   1.933       .  S
Br434      C1039   1.927       .  S
C435        C436   1.415       .  A
C435        C440   1.408       .  A
C436        C437   1.410       .  A
C436       Br448   1.922       .  S
C437        C438   1.408       .  A
C437       Br452   1.931       .  S
C438        C441   1.485       .  S
C438        C439   1.408       .  A
C439        C440   1.404       .  A
C439       Br447   1.930       .  S
C440       Br451   1.922       .  S
C441        C442   1.411       .  A
C441        C446   1.408       .  A
C442        C443   1.410       .  A
C442       Br453   1.926       .  S
C443        C444   1.408       .  A
C443       Br449   1.928       .  S
C444        C445   1.412       .  A
C445        C446   1.404       .  A
C445       Br454   1.928       .  S
C446       Br450   1.933       .  S
C455        C456   1.413       .  A
C455        C460   1.416       .  A
C456        C457   1.406       .  A
C456       Br468   1.925       .  S
C457        C458   1.406       .  A
C457       Br472   1.930       .  S
C458        C461   1.480       .  S
C458        C459   1.408       .  A
C459        C460   1.405       .  A
C459       Br467   1.934       .  S
C460       Br471   1.935       .  S
C461        C462   1.408       .  A
C461        C466   1.410       .  A
C462        C463   1.404       .  A
C462       Br473   1.932       .  S
C463        C464   1.410       .  A
C463       Br469   1.928       .  S
C464        C465   1.405       .  A
C465        C466   1.405       .  A
C465       Br474   1.929       .  S
C466       Br470   1.924       .  S
C475        C476   1.414       .  A
C475        C480   1.417       .  A
C476        C477   1.407       .  A
C476       Br488   1.924       .  S
C477        C478   1.407       .  A
C477       Br492   1.932       .  S
C478        C481   1.492       .  S
C478        C479   1.410       .  A
C479        C480   1.414       .  A
C479       Br487   1.929       .  S
C480       Br491   1.931       .  S
C481        C482   1.407       .  A
C481        C486   1.412       .  A
C482        C483   1.406       .  A
C482       Br493   1.934       .  S
C483        C484   1.415       .  A
C483       Br489   1.927       .  S
C484        C485   1.410       .  A
C485        C486   1.415       .  A
C485       Br494   1.927       .  S
C486       Br490   1.926       .  S
C495        C496   1.415       .  A
C495        C500   1.412       .  A
C496        C497   1.403       .  A
C496       Br508   1.920       .  S
C497        C498   1.405       .  A
C497       Br512   1.936       .  S
C498        C501   1.481       .  S
C498        C499   1.408       .  A
C499        C500   1.409       .  A
C499       Br507   1.929       .  S
C500       Br511   1.924       .  S
C501        C502   1.411       .  A
C501        C506   1.408       .  A
C502        C503   1.409       .  A
C502       Br513   1.927       .  S
C503        C504   1.408       .  A
C503       Br509   1.928       .  S
C504        C505   1.410       .  A
C505        C506   1.403       .  A
C505       Br514   1.928       .  S
C506       Br510   1.933       .  S
C515        C516   1.416       .  A
C515        C520   1.412       .  A
C516        C517   1.410       .  A
C516       Br528   1.922       .  S
C517        C518   1.407       .  A
C517       Br532   1.931       .  S
C518        C521   1.488       .  S
C518        C519   1.408       .  A
C519        C520   1.408       .  A
C519       Br527   1.929       .  S
C520       Br531   1.922       .  S
C521        C522   1.411       .  A
C521        C526   1.408       .  A
C522        C523   1.411       .  A
C522       Br533   1.925       .  S
C523        C524   1.408       .  A
C523       Br529   1.928       .  S
C524        C525   1.412       .  A
C525        C526   1.407       .  A
C525       Br534   1.929       .  S
C526       Br530   1.931       .  S
C535        C536   1.422       .  A
C535        C540   1.417       .  A
C536        C537   1.403       .  A
C536       Br548   1.921       .  S
C537        C538   1.403       .  A
C537       Br552   1.936       .  S
C538        C541   1.489       .  S
C538        C539   1.410       .  A
C539        C540   1.412       .  A
C539       Br547   1.929       .  S
C540       Br551   1.923       .  S
C541        C542   1.405       .  A
C541        C546   1.404       .  A
C542        C543   1.412       .  A
C542       Br553   1.935       .  S
C543        C544   1.425       .  A
C543       Br549   1.918       .  S
C544        C626   1.515       .  S
C544        C545   1.428       .  A
C545        C546   1.407       .  A
C545       Br554   1.935       .  S
C546       Br550   1.935       .  S
C555        C556   1.422       .  A
C555        C560   1.419       .  A
C556        C557   1.416       .  A
C556       Br568   1.913       .  S
C557        C558   1.411       .  A
C557       Br572   1.935       .  S
C558        C561   1.499       .  S
C558        C559   1.407       .  A
C559        C560   1.406       .  A
C559       Br567   1.930       .  S
C560       Br571   1.923       .  S
C561        C562   1.412       .  A
C561        C566   1.408       .  A
C562        C563   1.414       .  A
C562       Br573   1.931       .  S
C563        C564   1.417       .  A
C563       Br569   1.923       .  S
C564        C565   1.421       .  A
C565        C566   1.408       .  A
C565       Br574   1.926       .  S
C566       Br570   1.935       .  S
C575        C576   1.423       .  A
C575        C580   1.414       .  A
C576        C577   1.411       .  A
C576       Br588   1.931       .  S
C577        C578   1.406       .  A
C577       Br592   1.932       .  S
C578        C581   1.493       .  S
C578        C579   1.409       .  A
C579        C580   1.411       .  A
C579       Br587   1.931       .  S
C580      Br1205   1.920       .  S
C581        C582   1.407       .  A
C581        C586   1.407       .  A
C582        C583   1.413       .  A
C582       Br593   1.931       .  S
C583        C584   1.417       .  A
C583       Br589   1.919       .  S
C584        C585   1.418       .  A
C585        C586   1.408       .  A
C585       Br594   1.926       .  S
C586       Br590   1.929       .  S
Br591      C1194   1.920   1_554  S
C595        C596   1.415       .  A
C595        C600   1.419       .  A
C596        C597   1.412       .  A
C596       Br608   1.918       .  S
C597        C598   1.408       .  A
C597       Br612   1.928       .  S
C598        C601   1.488       .  S
C598        C599   1.405       .  A
C599        C600   1.406       .  A
C599       Br607   1.935       .  S
C600       Br611   1.920       .  S
C601        C602   1.406       .  A
C601        C606   1.413       .  A
C602        C603   1.402       .  A
C602       Br613   1.938       .  S
C603        C604   1.414       .  A
C603       Br609   1.919       .  S
C604        C605   1.409       .  A
C605        C606   1.415       .  A
C605      Br1228   1.924   1_554  S
C606       Br610   1.927       .  S
Br614      C1219   1.924       .  S
N615        C616   1.367       .  A
N615       C1189   1.454       .  S
C616        C746   1.490       .  S
C617        C618   1.372       .  A
C617        H620   1.080       .  S
C618        C619   1.378       .  A
C618        H621   1.082       .  S
C619       C1218   1.490       .  S
N622        C626   1.373       .  A
N622        C623   1.379       .  A
N622       C1169   1.467       .  S
C623        C690   1.506       .  S
C624        C625   1.361   1_554  A
C624        H627   1.084       .  S
C625        H628   1.081       .  S
C629       C1209   1.502       .  S
C629        C630   1.430       .  A
C629        C634   1.409       .  A
C630       C1198   1.503       .  S
C630        C631   1.415       .  A
C631        C632   1.407       .  A
C631        H636   1.084       .  S
C632       C1129   1.500       .  S
C632        C633   1.418       .  A
C633       C1109   1.494       .  S
C633        C634   1.404       .  A
C634        H635   1.085       .  S
O637        C645   1.256       .  A
O638        C639   1.264       .  A
C639       C1078   1.467       .  S
C639        O640   1.256       .  A
O641        C642   1.268       .  A
C642       C1038   1.478       .  S
C642        O643   1.258       .  A
O644        C645   1.264       .  A
C645       C1138   1.478       .  S
O646        C654   1.266       .  A
O646       Cr655   2.010       .  S
O647        C648   1.257       .  A
O647       Cr655   1.972       .  S
C648       C1098   1.485       .  S
C648        O649   1.268       .  A
O649       Cr656   2.027       .  S
O650        C651   1.260       .  A
O650       Cr656   1.980       .  S
C651       C1058   1.475       .  S
C651        O652   1.264       .  A
O652       Cr657   2.006       .  S
O653        C654   1.258       .  A
O653       Cr657   1.973       .  S
C654       C1118   1.471       .  S
Cr655       O658   1.777       .  S
Cr656       O658   1.782       .  S
Cr657       O658   1.779       .  S
C659       C1178   1.512       .  S
C659        C660   1.434       .  A
C659        C664   1.415       .  A
C660       C1149   1.508       .  S
C660        C661   1.417       .  A
C661        C662   1.406       .  A
C661        H666   1.084       .  S
C662       C1029   1.501       .  S
C662        C663   1.415       .  A
C663       C1049   1.494       .  S
C663        C664   1.406       .  A
C664        H665   1.084       .  S
C667       C1089   1.502       .  S
C667        C668   1.417       .  A
C667        C672   1.407       .  A
C668       C1069   1.491       .  S
C668        C669   1.399       .  A
C669        C670   1.405       .  A
C669        H674   1.084       .  S
C670        C998   1.503       .  S
C670        C671   1.431       .  A
C671       C1009   1.506       .  S
C671        C672   1.416       .  A
C672        H673   1.084       .  S
N675        C679   1.378       .  A
N675        C676   1.375       .  A
N675       C1018   1.468       .  S
C677        H680   1.081       .  S
C678        C679   1.390       .  A
C679        C683   1.510       .  S
N682        C686   1.370       .  A
N682        C683   1.377       .  A
N682        C958   1.468       .  S
C683        C684   1.391       .  A
C685        H688   1.081       .  S
N689        C693   1.361       .  A
N689        C690   1.372       .  A
N689        C909   1.454       .  S
C690        C691   1.391       .  A
C692        H695   1.082   1_554  S
C696        C949   1.508       .  S
C696        C697   1.431       .  A
C696        C701   1.413       .  A
C697        C978   1.499       .  S
C697        C698   1.412       .  A
C698        C699   1.403       .  A
C698        H703   1.085       .  S
C699        C869   1.498       .  S
C699        C700   1.416       .  A
C700        C898   1.491       .  S
C700        C701   1.405       .  A
C701        H702   1.084       .  S
C704        C918   1.497       .  S
C704        C705   1.426       .  A
C704        C709   1.407       .  A
C705        C929   1.498       .  S
C705        C706   1.407       .  A
C706        C707   1.403       .  A
C706        H711   1.084       .  S
C707        C849   1.497       .  S
C707        C708   1.420       .  A
C708        C838   1.495       .  S
C708        C709   1.402       .  A
C709        H710   1.084       .  S
O712        C720   1.255       .  A
O713        C714   1.261       .  A
C714        C878   1.489       .  S
C714        O715   1.268       .  A
O716        C717   1.264       .  A
C717        C858   1.484       .  S
C717        O718   1.257       .  A
O719        C720   1.263       .  A
C720        C798   1.470       .  S
O721        C729   1.263       .  A
O721       Cr730   2.000       .  S
O722        C723   1.259       .  A
O722       Cr730   1.979       .  S
C723        C889   1.507       .  S
C723        O724   1.260       .  A
O724       Cr731   1.997       .  S
O725        C726   1.265       .  A
O725       Cr731   1.992       .  S
C726        C829   1.477       .  S
C726        O727   1.265       .  A
O727       Cr732   2.005       .  S
O728        C729   1.259       .  A
O728       Cr732   1.983       .  S
C729        C809   1.475       .  S
Cr730       O733   1.775       .  S
Cr731       O733   1.775       .  S
Cr732       O733   1.780       .  S
C734        C818   1.502       .  S
C734        C735   1.419       .  A
C734        C739   1.408       .  A
C735        C789   1.485       .  S
C735        C736   1.403       .  A
C736        C737   1.402       .  A
C736        H741   1.085       .  S
C737        C749   1.497       .  S
C737        C738   1.425       .  A
C738        C778   1.493       .  S
C738        C739   1.410       .  A
C739        H740   1.084       .  S
N742        C746   1.366       .  A
N742        C758   1.460       .  S
C743        C769   1.495       .  S
C743        C744   1.379       .  A
C744        C745   1.371       .  A
C744        H747   1.082       .  S
C745        H748   1.078       .  S
C749        C750   1.412       .  A
C749        C754   1.416       .  A
C750        C751   1.409   1_545  A
C750       Br762   1.927       .  S
C751        C752   1.412   1_565  A
C751       Br766   1.926       .  S
C752        C755   1.502   1_545  S
C752        C753   1.411       .  A
C753        C754   1.414       .  A
C753       Br761   1.929       .  S
C754       Br765   1.925       .  S
C755        C756   1.412       .  A
C755        C760   1.408       .  A
C756        C757   1.413       .  A
C756       Br767   1.930   1_565  S
C757        C758   1.412       .  A
C758        C759   1.427       .  A
C759        C760   1.415       .  A
C759       Br768   1.931       .  S
C760       Br764   1.933       .  S
C769        C770   1.407       .  A
C769        C774   1.417       .  A
C770        C771   1.414       .  A
C771        C772   1.413       .  A
C771       Br786   1.926   1_565  S
C772        C775   1.490   1_565  S
C772        C773   1.404       .  A
C773        C774   1.404       .  A
C773       Br781   1.936       .  S
C774       Br785   1.913       .  S
C775        C776   1.409       .  A
C775        C780   1.408   1_545  A
C776        C777   1.408       .  A
C776       Br787   1.932       .  S
C777        C778   1.414       .  A
C777       Br783   1.923       .  S
C778        C779   1.414       .  A
C779        C780   1.410   1_545  A
C779       Br788   1.923       .  S
C780       Br784   1.929       .  S
C789        C790   1.410       .  A
C789        C794   1.415       .  A
C790        C791   1.404       .  A
C790       Br802   1.925       .  S
C791        C792   1.407       .  A
C791       Br806   1.931       .  S
C792        C795   1.477       .  S
C792        C793   1.406       .  A
C793        C794   1.405       .  A
C793       Br801   1.930       .  S
C794       Br805   1.931       .  S
C795        C796   1.406       .  A
C795        C800   1.408       .  A
C796        C797   1.402       .  A
C796       Br807   1.931       .  S
C797        C798   1.412       .  A
C797       Br803   1.932   1_556  S
C798        C799   1.410       .  A
C799        C800   1.406       .  A
C799       Br808   1.929       .  S
C800       Br804   1.927       .  S
C809        C810   1.406       .  A
C809        C814   1.410       .  A
C810        C811   1.407       .  A
C810       Br822   1.922       .  S
C811        C812   1.409       .  A
C811       Br826   1.924       .  S
C812        C815   1.487       .  S
C812        C813   1.409       .  A
C813        C814   1.407       .  A
C813       Br821   1.928       .  S
C814       Br825   1.928       .  S
C815        C816   1.407       .  A
C815        C820   1.406       .  A
C816        C817   1.406       .  A
C816       Br827   1.934       .  S
C817        C818   1.416       .  A
C817       Br823   1.927       .  S
C818        C819   1.417       .  A
C819        C820   1.413       .  A
C819       Br828   1.921       .  S
C820       Br824   1.929       .  S
C829        C830   1.410       .  A
C829        C834   1.408       .  A
C830        C831   1.408       .  A
C830       Br842   1.927       .  S
C831        C832   1.410       .  A
C831       Br846   1.930       .  S
C832        C835   1.488       .  S
C832        C833   1.409       .  A
C833        C834   1.409       .  A
C833       Br841   1.927       .  S
C834       Br845   1.925       .  S
C835        C836   1.408       .  A
C835        C840   1.409       .  A
C836        C837   1.408       .  A
C836       Br847   1.930       .  S
C837        C838   1.413       .  A
C837       Br843   1.926       .  S
C838        C839   1.416       .  A
C839        C840   1.409       .  A
C839       Br848   1.933       .  S
C840       Br844   1.930       .  S
C849        C850   1.417       .  A
C849        C854   1.411       .  A
C850        C851   1.411       .  A
C850       Br862   1.933       .  S
C851        C852   1.412       .  A
C851       Br866   1.932       .  S
C852        C855   1.491       .  S
C852        C853   1.409       .  A
C853        C854   1.405       .  A
C853       Br861   1.931       .  S
C854       Br865   1.923       .  S
C855        C856   1.411       .  A
C855        C860   1.411       .  A
C856        C857   1.410       .  A
C856       Br867   1.931       .  S
C857        C858   1.411       .  A
C857       Br863   1.925       .  S
C858        C859   1.415       .  A
C859        C860   1.408       .  A
C859       Br868   1.933       .  S
C860       Br864   1.933       .  S
C869        C870   1.414       .  A
C869        C874   1.416       .  A
C870        C871   1.410       .  A
C870       Br882   1.924       .  S
C871        C872   1.407       .  A
C871       Br886   1.928       .  S
C872        C875   1.483       .  S
C872        C873   1.405       .  A
C873        C874   1.405       .  A
C873       Br881   1.935       .  S
C874       Br885   1.920       .  S
C875        C876   1.407       .  A
C875        C880   1.406       .  A
C876        C877   1.409       .  A
C876       Br887   1.925       .  S
C877        C878   1.412       .  A
C877       Br883   1.927       .  S
C878        C879   1.422       .  A
C879        C880   1.406       .  A
C880       Br884   1.936       .  S
C889        C890   1.434       .  A
C889        C894   1.428       .  A
C890        C891   1.405       .  A
C890       Br902   1.942       .  S
C891        C892   1.401       .  A
C891       Br906   1.940       .  S
C892        C895   1.479       .  S
C892        C893   1.403       .  A
C893        C894   1.409       .  A
C893       Br901   1.935       .  S
C894       Br905   1.932       .  S
C895        C896   1.407       .  A
C895        C900   1.407       .  A
C896        C897   1.406       .  A
C896       Br907   1.934       .  S
C897        C898   1.416       .  A
C897       Br903   1.917       .  S
C898        C899   1.408       .  A
C899        C900   1.401       .  A
C899       Br908   1.922       .  S
C900       Br904   1.929       .  S
C909        C910   1.415       .  A
C909        C914   1.420       .  A
C910        C911   1.414       .  A
C910       Br922   1.923       .  S
C911        C912   1.412       .  A
C911       Br926   1.931       .  S
C912        C915   1.496       .  S
C912        C913   1.405       .  A
C913        C914   1.409       .  A
C913       Br921   1.932       .  S
C914       Br925   1.922       .  S
C915        C916   1.408       .  A
C915        C920   1.411       .  A
C916        C917   1.411       .  A
C916       Br927   1.930       .  S
C917        C918   1.414       .  A
C917       Br923   1.922       .  S
C918        C919   1.417       .  A
C919        C920   1.408       .  A
C919       Br928   1.938       .  S
C920       Br924   1.925       .  S
C929        C930   1.420       .  A
C929        C934   1.416       .  A
C930        C931   1.410       .  A
C930       Br942   1.934       .  S
C931        C932   1.406       .  A
C931       Br946   1.930       .  S
C932        C935   1.486       .  S
C932        C933   1.406       .  A
C933        C934   1.408       .  A
C933       Br941   1.932       .  S
C934       Br945   1.920       .  S
C935        C936   1.405       .  A
C935        C940   1.410       .  A
C936        C937   1.406       .  A
C936       Br947   1.933       .  S
C937        C938   1.419       .  A
C937       Br943   1.931       .  S
C938        C939   1.406       .  A
C939        C940   1.410       .  A
C940       Br944   1.927       .  S
C949        C950   1.417       .  A
C949        C954   1.419       .  A
C950        C951   1.416       .  A
C950       Br962   1.921       .  S
C951        C952   1.414       .  A
C951       Br966   1.929       .  S
C952        C955   1.497       .  S
C952        C953   1.406       .  A
C953        C954   1.403       .  A
C953       Br961   1.934       .  S
C954       Br965   1.922       .  S
C955        C956   1.406       .  A
C955        C960   1.413       .  A
C956        C957   1.404       .  A
C956       Br967   1.930       .  S
C957        C958   1.419       .  A
C957       Br963   1.922       .  S
C958        C959   1.422       .  A
C959        C960   1.417       .  A
C959       Br968   1.921       .  S
C960       Br964   1.934       .  S
C969        C970   1.426       .  A
C969        C974   1.428       .  A
C970        C971   1.411       .  A
C971        C972   1.405       .  A
C971       Br986   1.936       .  S
C972        C975   1.488       .  S
C972        C973   1.404       .  A
C973        C974   1.408       .  A
C973       Br981   1.936       .  S
C974       Br985   1.936       .  S
C975        C976   1.410       .  A
C975        C980   1.405       .  A
C976        C977   1.408       .  A
C976       Br987   1.931       .  S
C977        C978   1.412       .  A
C977       Br983   1.921       .  S
C978        C979   1.421       .  A
C979        C980   1.406       .  A
C979       Br988   1.924       .  S
C980       Br984   1.934       .  S
C989        C990   1.429       .  A
C989        C994   1.423       .  A
C990        C991   1.409       .  A
C990      Br1002   1.937       .  S
C991        C992   1.405   1_655  A
C991      Br1006   1.936       .  S
C992        C995   1.495       .  S
C992        C993   1.408       .  A
C993        C994   1.414   1_455  A
C993      Br1001   1.933       .  S
C995        C996   1.408       .  A
C995       C1000   1.411       .  A
C996        C997   1.408       .  A
C996      Br1007   1.933       .  S
C997        C998   1.423       .  A
C997      Br1003   1.937       .  S
C998        C999   1.415       .  A
C999       C1000   1.411       .  A
C999      Br1008   1.925       .  S
C1000     Br1004   1.930       .  S
C1009      C1010   1.422       .  A
C1009      C1014   1.415       .  A
C1010      C1011   1.410       .  A
C1010     Br1022   1.937       .  S
C1011      C1012   1.410       .  A
C1011     Br1026   1.934       .  S
C1012      C1015   1.500   1_455  S
C1012      C1013   1.413       .  A
C1013      C1014   1.412       .  A
C1013     Br1021   1.931   1_455  S
C1014     Br1025   1.925       .  S
C1015      C1016   1.412       .  A
C1015      C1020   1.407       .  A
C1016      C1017   1.418       .  A
C1016     Br1027   1.933   1_655  S
C1017      C1018   1.424       .  A
C1017     Br1023   1.921       .  S
C1018      C1019   1.418       .  A
C1019      C1020   1.405       .  A
C1019     Br1028   1.923       .  S
C1020     Br1024   1.932       .  S
C1029      C1030   1.416       .  A
C1029      C1034   1.411       .  A
C1030      C1031   1.409       .  A
C1030     Br1042   1.919       .  S
C1031      C1032   1.407       .  A
C1031     Br1046   1.935       .  S
C1032      C1035   1.490       .  S
C1032      C1033   1.410       .  A
C1033      C1034   1.410       .  A
C1033     Br1041   1.929       .  S
C1034     Br1045   1.923       .  S
C1035      C1036   1.413       .  A
C1035      C1040   1.410       .  A
C1036      C1037   1.412       .  A
C1036     Br1047   1.927       .  S
C1037      C1038   1.408       .  A
C1037     Br1043   1.928       .  S
C1038      C1039   1.411       .  A
C1039      C1040   1.405       .  A
C1040     Br1044   1.933       .  S
C1049      C1050   1.415       .  A
C1049      C1054   1.408       .  A
C1050      C1051   1.410       .  A
C1050     Br1062   1.922       .  S
C1051      C1052   1.408       .  A
C1051     Br1066   1.931       .  S
C1052      C1055   1.485       .  S
C1052      C1053   1.408       .  A
C1053      C1054   1.404       .  A
C1053     Br1061   1.930       .  S
C1054     Br1065   1.922       .  S
C1055      C1056   1.411       .  A
C1055      C1060   1.408       .  A
C1056      C1057   1.410       .  A
C1056     Br1067   1.926       .  S
C1057      C1058   1.408       .  A
C1057     Br1063   1.928       .  S
C1058      C1059   1.412       .  A
C1059      C1060   1.404       .  A
C1059     Br1068   1.928       .  S
C1060     Br1064   1.933       .  S
C1069      C1070   1.413       .  A
C1069      C1074   1.416       .  A
C1070      C1071   1.406       .  A
C1070     Br1082   1.925       .  S
C1071      C1072   1.406       .  A
C1071     Br1086   1.930       .  S
C1072      C1075   1.480       .  S
C1072      C1073   1.408       .  A
C1073      C1074   1.405       .  A
C1073     Br1081   1.934       .  S
C1074     Br1085   1.935       .  S
C1075      C1076   1.408       .  A
C1075      C1080   1.410       .  A
C1076      C1077   1.404       .  A
C1076     Br1087   1.932       .  S
C1077      C1078   1.410       .  A
C1077     Br1083   1.928       .  S
C1078      C1079   1.405       .  A
C1079      C1080   1.405       .  A
C1079     Br1088   1.929       .  S
C1080     Br1084   1.924       .  S
C1089      C1090   1.414       .  A
C1089      C1094   1.417       .  A
C1090      C1091   1.407       .  A
C1090     Br1102   1.924       .  S
C1091      C1092   1.407       .  A
C1091     Br1106   1.932       .  S
C1092      C1095   1.492       .  S
C1092      C1093   1.410       .  A
C1093      C1094   1.414       .  A
C1093     Br1101   1.929       .  S
C1094     Br1105   1.931       .  S
C1095      C1096   1.407       .  A
C1095      C1100   1.412       .  A
C1096      C1097   1.406       .  A
C1096     Br1107   1.934       .  S
C1097      C1098   1.415       .  A
C1097     Br1103   1.927       .  S
C1098      C1099   1.410       .  A
C1099      C1100   1.415       .  A
C1099     Br1108   1.927       .  S
C1100     Br1104   1.926       .  S
C1109      C1110   1.415       .  A
C1109      C1114   1.412       .  A
C1110      C1111   1.403       .  A
C1110     Br1122   1.920       .  S
C1111      C1112   1.405       .  A
C1111     Br1126   1.936       .  S
C1112      C1115   1.481       .  S
C1112      C1113   1.408       .  A
C1113      C1114   1.409       .  A
C1113     Br1121   1.929       .  S
C1114     Br1125   1.924       .  S
C1115      C1116   1.411       .  A
C1115      C1120   1.408       .  A
C1116      C1117   1.409       .  A
C1116     Br1127   1.927       .  S
C1117      C1118   1.408       .  A
C1117     Br1123   1.928       .  S
C1118      C1119   1.410       .  A
C1119      C1120   1.403       .  A
C1119     Br1128   1.928       .  S
C1120     Br1124   1.933       .  S
C1129      C1130   1.416       .  A
C1129      C1134   1.412       .  A
C1130      C1131   1.410       .  A
C1130     Br1142   1.922       .  S
C1131      C1132   1.407       .  A
C1131     Br1146   1.931       .  S
C1132      C1135   1.488       .  S
C1132      C1133   1.408       .  A
C1133      C1134   1.408       .  A
C1133     Br1141   1.929       .  S
C1134     Br1145   1.922       .  S
C1135      C1136   1.411       .  A
C1135      C1140   1.408       .  A
C1136      C1137   1.411       .  A
C1136     Br1147   1.925       .  S
C1137      C1138   1.408       .  A
C1137     Br1143   1.928       .  S
C1138      C1139   1.412       .  A
C1139      C1140   1.407       .  A
C1139     Br1148   1.929   1_556  S
C1140     Br1144   1.931       .  S
C1149      C1150   1.422       .  A
C1149      C1154   1.417       .  A
C1150      C1151   1.403       .  A
C1150     Br1162   1.921       .  S
C1151      C1152   1.403       .  A
C1151     Br1166   1.936       .  S
C1152      C1155   1.489       .  S
C1152      C1153   1.410       .  A
C1153      C1154   1.412       .  A
C1153     Br1161   1.929       .  S
C1154     Br1165   1.923       .  S
C1155      C1156   1.405       .  A
C1155      C1160   1.404       .  A
C1156      C1157   1.412       .  A
C1156     Br1167   1.935       .  S
C1157      C1158   1.425       .  A
C1157     Br1163   1.918   1_556  S
C1158      C1159   1.428       .  A
C1159      C1160   1.407       .  A
C1159     Br1168   1.935       .  S
C1160     Br1164   1.935       .  S
C1169      C1170   1.422       .  A
C1169      C1174   1.419       .  A
C1170      C1171   1.416       .  A
C1170     Br1182   1.913       .  S
C1171      C1172   1.411       .  A
C1171     Br1186   1.935       .  S
C1172      C1175   1.499       .  S
C1172      C1173   1.407       .  A
C1173      C1174   1.406       .  A
C1173     Br1181   1.930       .  S
C1174     Br1185   1.923       .  S
C1175      C1176   1.412       .  A
C1175      C1180   1.408       .  A
C1176      C1177   1.414       .  A
C1176     Br1187   1.931       .  S
C1177      C1178   1.417       .  A
C1177     Br1183   1.923       .  S
C1178      C1179   1.421       .  A
C1179      C1180   1.408       .  A
C1179     Br1188   1.926       .  S
C1180     Br1184   1.935       .  S
C1189      C1190   1.423       .  A
C1189      C1194   1.414       .  A
C1190      C1191   1.411       .  A
C1190     Br1202   1.931       .  S
C1191      C1192   1.406       .  A
C1191     Br1206   1.932       .  S
C1192      C1195   1.493       .  S
C1192      C1193   1.409       .  A
C1193      C1194   1.411       .  A
C1193     Br1201   1.931       .  S
C1195      C1196   1.407       .  A
C1195      C1200   1.407       .  A
C1196      C1197   1.413       .  A
C1196     Br1207   1.931       .  S
C1197      C1198   1.417       .  A
C1197     Br1203   1.919       .  S
C1198      C1199   1.418       .  A
C1199      C1200   1.408       .  A
C1199     Br1208   1.926       .  S
C1200     Br1204   1.929       .  S
C1209      C1210   1.415       .  A
C1209      C1214   1.419       .  A
C1210      C1211   1.412       .  A
C1210     Br1222   1.918       .  S
C1211      C1212   1.408       .  A
C1211     Br1226   1.928       .  S
C1212      C1215   1.488       .  S
C1212      C1213   1.405       .  A
C1213      C1214   1.406       .  A
C1213     Br1221   1.935       .  S
C1214     Br1225   1.920       .  S
C1215      C1216   1.406       .  A
C1215      C1220   1.413       .  A
C1216      C1217   1.402       .  A
C1216     Br1227   1.938       .  S
C1217      C1218   1.414       .  A
C1217     Br1223   1.919       .  S
C1218      C1219   1.409       .  A
C1219      C1220   1.415       .  A
C1220     Br1224   1.927       .  S
