geometry optimzed in LAMMPS
_audit_creation_date              2020-12-01 
_audit_creation_method            'lammps2cif' 
_symmetry_space_group_name_H-M    'P1' 
_symmetry_Int_Tables_number       1 
_symmetry_cell_setting            triclinic 
loop_ 
_symmetry_equiv_pos_as_xyz 
  x,y,z 
_cell_length_a                    41.30133499 
_cell_length_b                    41.404361173803146 
_cell_length_c                    46.55144697260586 
_cell_angle_alpha                 90.25850711990478 
_cell_angle_beta                  89.97106603716956 
_cell_angle_gamma                 122.43250562506678 
loop_ 
_atom_site_label 
_atom_site_type_symbol 
_atom_site_fract_x 
_atom_site_fract_y 
_atom_site_fract_z 
_atom_site_charge 
C1          C  0.35308635  0.14520049  0.99196169     0.80200
N2          N  0.37311260  0.18358676  0.98744108    -0.78100
C3          C  0.35494932  0.20278836  0.98610045     0.82600
N4          N  0.31616983  0.18310819  0.98873118    -0.78100
C5          C  0.29549427  0.14449942  0.99266140     0.82700
N6          N  0.31428845  0.12583637  0.99429017    -0.79800
C7          C  0.35272671  0.14777870  0.10443107     0.80200
N8          N  0.37149044  0.18646103  0.10350398    -0.78100
C9          C  0.35214261  0.20451748  0.10432206     0.82600
N10         N  0.31334275  0.18349212  0.10695224    -0.78100
C11         C  0.29404131  0.14469711  0.10836138     0.82700
N12         N  0.31389569  0.12714896  0.10706027    -0.79800
C13         C  0.13419770  0.35421963  0.36119665     0.80200
N14         N  0.11333535  0.31565989  0.36388170    -0.78100
C15         C  0.13052196  0.29551880  0.36321006     0.82600
N16         N  0.16922458  0.31416184  0.36039427    -0.78100
C17         C  0.19056405  0.35288454  0.35797753     0.82700
N18         N  0.17286121  0.37258908  0.35861195    -0.79800
C19         C  0.14108475  0.35941660  0.23340220     0.80200
N20         N  0.12411677  0.32078348  0.23437197    -0.78100
C21         C  0.14559300  0.30486804  0.23385606     0.82600
N22         N  0.18435189  0.32782358  0.23193106    -0.78100
C23         C  0.20163826  0.36639108  0.23109634     0.82700
N24         N  0.17991809  0.38185263  0.23169930    -0.79800
C25         C  0.06488321  0.44301997  0.38004974     0.42400
N26         N  0.01966973  0.45365824  0.38536235     0.01300
C27         C  0.03849700  0.12230405  0.42310528    -0.06600
H28         H  0.10087630  0.08168969  0.49757813     0.06800
C29         C  0.47452887  0.47003211  0.01010503    -0.06900
Co30       Co  0.05114504  0.03440139  0.39560741     0.74200
N31         N  0.07372100  0.05844083  0.45661130    -0.26100
Co32       Co  0.02062688  0.05212336  0.45940242     0.74100
C33         C  0.50730944  0.49875385  0.02693291     0.42500
N34         N  0.43486927  0.41377872  0.44491862     0.00900
N35         N  0.00486937  0.01404192  0.49320807     0.01000
N36         N  0.05878578  0.11027604  0.38169257    -0.47000
H37         H  0.11080281  0.50811677  0.38150435     0.06800
N38         N  0.08553554  0.05141412  0.43243211     0.01300
N39         N  0.47009521  0.04994196  0.45512276     0.01000
C40         C  0.42535728  0.06115809  0.45700588     0.42600
N41         N  0.44629817  0.40558713  0.42102761    -0.25600
C42         C  0.02125103  0.03436216  0.33429498    -0.06500
N43         N  0.02638687  0.42608843  0.38164972    -0.46700
N44         N  0.46375956  0.07799142  0.45677455    -0.46900
C45         C  0.49356037  0.00800363  0.31546423     0.42400
N46         N  0.04745980  0.08221683  0.40036666     0.01300
N47         N  0.41031569  0.43726042  0.38743968    -0.25600
N48         N  0.05143632  0.48788581  0.38615511    -0.26100
N49         N  0.39923810  0.44570589  0.41138387     0.00900
H50         H  0.38255379  0.41503294  0.34639103     0.06800
H51         H  0.37826135  0.99697753  0.45634894     0.06800
N52         N  0.03580548  0.08876278  0.42478677    -0.26100
N53         N  0.46803102  0.48079849  0.48457142    -0.25700
N54         N  0.48036338  0.47896255  0.35072023     0.01300
C55         C  0.13362500  0.07357147  0.46107300     0.42700
C56         C  0.44248254  0.37154971  0.42413183    -0.07000
N57         N  0.43811901  0.01577976  0.45448786    -0.25700
H58         H  0.44997764  0.44289218  0.01685351     0.06800
N59         N  0.12134421  0.06012287  0.43415580    -0.47000
H60         H  0.44809936  0.35656085  0.40775879     0.06800
C61         C  0.35195472  0.42709278  0.38242404     0.42500
C62         C  0.08151899  0.48428704  0.38281066    -0.06500
Co63       Co  0.46288901  0.44134638  0.38537275     0.73800
N64         N  0.42239568  0.38650750  0.46440356    -0.46700
C65         C  0.05361191  0.13660438  0.39433844     0.42800
N66         N  0.46409091  0.47180889  0.32501087    -0.46700
Co67       Co  0.43289511  0.46259385  0.44835543     0.73900
C68         C  0.40816107  0.01992022  0.45586910    -0.07000
C69         C  0.10205227  0.07241341  0.47606908    -0.06600
N70         N  0.01574750  0.01690674  0.35961460    -0.26100
N71         N  0.02416816  0.02823990  0.01801783    -0.46900
H72         H  0.03241839  0.13555531  0.44055475     0.06800
C73         C  0.38216933  0.42495751  0.36784415    -0.07000
Cl74       Cl  0.49741295  0.00073143  0.42352838    -0.50000
C75         C  0.42662000  0.35907988  0.45291269     0.42500
H76         H  0.04607198  0.06181588  0.32846941     0.06800
N77         N  0.36451883  0.43975165  0.40936346    -0.46700
C78         C  0.13545804  0.07066036  0.14346344     0.42400
N79         N  0.07904726  0.05990603  0.14970912     0.01300
C80         C  0.46001732  0.47174227  0.25913862    -0.06600
H81         H  0.99352642  0.38708538  0.21162231     0.06800
C82         C  0.42885415  0.39607829  0.11624646    -0.06900
Co83       Co  0.04923881  0.03212031  0.20888328     0.74200
N84         N  0.01163828  0.44605343  0.20644662    -0.26100
Co85       Co  0.46320391  0.44598939  0.19718303     0.74100
C86         C  0.42985434  0.36554035  0.13098357     0.42500
N87         N  0.48434179  0.49398152  0.10020006     0.00900
N88         N  0.44877810  0.41287487  0.15997959     0.01000
N89         N  0.01789617  0.03014331  0.26878297    -0.47000
H90         H  0.13656988  0.05036330  0.18936680     0.06800
N91         N  0.04537434  0.47840586  0.20769119     0.01300
N92         N  0.41424666  0.44756270  0.19216790     0.01000
C93         C  0.36024552  0.44199504  0.19951921     0.42600
N94         N  0.01311460  0.02509444  0.10904131    -0.25600
C95         C  0.06526361  0.11274988  0.22515359    -0.06500
N96         N  0.10742488  0.07314679  0.13096265    -0.46700
N97         N  0.38680685  0.43672628  0.21142791    -0.46900
C98         C  0.06532710  0.14330155  0.20958144     0.42400
N99         N  0.01055269  0.01437542  0.24288635     0.01300
N100        N  0.48103784  0.06211934  0.13863410    -0.25600
N101        N  0.08678639  0.04929697  0.17409053    -0.26100
N102        N  0.44721379  0.02977909  0.13796560     0.00900
H103        H  0.49895791  0.12090846  0.13203392     0.06800
H104        H  0.36007745  0.46323401  0.15376065     0.06800
N105        N  0.47796359  0.47976252  0.23376583    -0.26100
N106        N  0.44113053  0.42411880  0.13587851    -0.25700
N107        N  0.04491895  0.09479790  0.18163780     0.01300
C108        C  0.05782302  0.43485632  0.21462346     0.42700
C109        C  0.03036629  0.03130976  0.08348676    -0.07000
N110        N  0.40726987  0.45925789  0.16801954    -0.25700
H111        H  0.41915625  0.39656298  0.09476725     0.06800
N112        N  0.07367471  0.47301317  0.21260983    -0.47000
H113        H  0.05722438  0.05680936  0.07745396     0.06800
C114        C  0.43466174  0.07291281  0.12966538     0.42500
C115        C  0.12179051  0.05479188  0.17217984    -0.06500
Co116      Co  0.02943786  0.06049290  0.14501978     0.73800
N117        N  0.47758990  0.47768385  0.07458074    -0.46700
C118        C  0.49086676  0.00923959  0.28431588     0.42800
N119        N  0.05301820  0.13032687  0.18264588    -0.46700
Co120      Co  0.44489635  0.47617541  0.13350049     0.73900
C121        C  0.37371157  0.45674859  0.17053273    -0.07000
C122        C  0.01644741  0.41686819  0.21053615    -0.06600
N123        N  0.05239560  0.08399307  0.20606318    -0.26100
N124        N  0.44203367  0.37788971  0.15807765    -0.45900
H125        H  0.43349855  0.44545704  0.26447786     0.06800
C126        C  0.47613260  0.09113243  0.13370685    -0.07000
Cl127      Cl  0.49669550  0.00564335  0.17403749    -0.50000
C128        C  0.50860815  0.50059086  0.05833787     0.42500
H129        H  0.07593251  0.11321777  0.24646434     0.06800
N130        N  0.41888659  0.03492494  0.13251246    -0.46700
C131        C  0.12679583  0.26308111  0.23022487    -0.00200
C132        C  0.13935900  0.24971157  0.20778452    -0.12100
C133        C  0.11995852  0.21074041  0.20106678     0.02000
C134        C  0.08760601  0.18426416  0.21724549    -0.00300
C135        C  0.07618942  0.19725243  0.24068120    -0.12000
C136        C  0.09534776  0.23647801  0.24714876     0.01900
H137        H  0.16366917  0.26992602  0.19478925     0.14900
H138        H  0.05178634  0.17684689  0.25350059     0.14900
C139        C  0.08284391  0.24869040  0.27152720     0.36500
C140        C  0.13405205  0.19859958  0.17763847     0.36400
N141        N  0.07296799  0.25851198  0.29113978    -0.43800
N142        N  0.14536333  0.18884373  0.15891715    -0.43800
C143        C  0.24330794  0.39079055  0.22616462    -0.00200
C144        C  0.26775302  0.38376334  0.24193963    -0.12100
C145        C  0.30679931  0.40249845  0.23532067     0.02000
C146        C  0.32157176  0.42760375  0.21152535    -0.00300
C147        C  0.29759291  0.43679714  0.19730023    -0.12000
C148        C  0.25885366  0.41893167  0.20449887     0.01900
H149        H  0.25612153  0.36306202  0.25922990     0.14900
H150        H  0.30869988  0.45715044  0.17983239     0.14900
C151        C  0.23541697  0.42830703  0.18794594     0.36500
C152        C  0.33038722  0.39458824  0.25308323     0.36400
N153        N  0.21684218  0.43604998  0.17466550    -0.43800
N154        N  0.34911827  0.38834495  0.26761841    -0.43800
C155        C  0.11817841  0.37755259  0.23105940    -0.00200
C156        C  0.13817680  0.41776771  0.23006930    -0.12100
C157        C  0.11938617  0.43696170  0.22510064     0.02000
C158        C  0.07915271  0.41598228  0.22113380    -0.00300
C159        C  0.05883618  0.37588332  0.22328951    -0.12000
C160        C  0.07770194  0.35656582  0.22807830     0.01900
H161        H  0.16908840  0.43474376  0.23268449     0.14900
H162        H  0.02795149  0.35918363  0.22092844     0.14900
C163        C  0.05440459  0.31528831  0.22920341     0.36500
C164        C  0.14275279  0.47824070  0.22401668     0.36400
N165        N  0.03551395  0.28221450  0.23002661    -0.43800
N166        N  0.16187146  0.51130072  0.22326723    -0.43800
C167        C  0.10792204  0.25443531  0.36966167    -0.00200
C168        C  0.10997396  0.22879416  0.35124183    -0.12100
C169        C  0.09055956  0.18974786  0.35775361     0.02000
C170        C  0.06965162  0.17614049  0.38375844    -0.00300
C171        C  0.06639066  0.20190611  0.40138035    -0.12000
C172        C  0.08520221  0.24063806  0.39461399     0.01900
H173        H  0.12685069  0.23935997  0.33173584     0.14900
H174        H  0.05010218  0.19233146  0.42110893     0.14900
C175        C  0.08265572  0.26591843  0.41470167     0.36500
C176        C  0.09296670  0.16479077  0.33731456     0.36400
N177        N  0.08061590  0.28604855  0.43089348    -0.43800
N178        N  0.09491537  0.14502669  0.32069472    -0.43800
C179        C  0.23281087  0.37408193  0.36047344    -0.00200
C180        C  0.25079486  0.40623312  0.37861331    -0.12100
C181        C  0.28983160  0.42489044  0.38494240     0.02000
C182        C  0.31196534  0.41149979  0.37292648    -0.00300
C183        C  0.29455146  0.38084178  0.35322882    -0.12000
C184        C  0.25518829  0.36197339  0.34703979     0.01900
H185        H  0.23397616  0.41608584  0.38884212     0.14900
H186        H  0.31126668  0.37059773  0.34347394     0.14900
C187        C  0.23852704  0.33066737  0.32668137     0.36500
C188        C  0.30614213  0.45778942  0.40381169     0.36400
N189        N  0.22511283  0.30568662  0.31026380    -0.43800
N190        N  0.31864023  0.48418041  0.41884838    -0.43800
C191        C  0.08393433  0.42162236  0.37467075    -0.00200
C192        C  0.06050043  0.38268134  0.36720001    -0.12100
C193        C  0.07588486  0.36022970  0.36210540     0.02000
C194        C  0.11591135  0.37665374  0.36456646    -0.00300
C195        C  0.13936264  0.41563696  0.37171918    -0.12000
C196        C  0.12402480  0.43808820  0.37682632     0.01900
H197        H  0.02973835  0.36946040  0.36519095     0.14900
H198        H  0.17008749  0.42877998  0.37400355     0.14900
C199        C  0.15079455  0.47742697  0.38482764     0.36500
C200        C  0.04963939  0.32069808  0.35401710     0.36400
N201        N  0.17339348  0.50881034  0.39103319    -0.43800
N202        N  0.02847644  0.28903190  0.34759955    -0.43800
C203        C  0.37440105  0.12844070  0.10718195    -0.00200
C204        C  0.35393992  0.08949569  0.11451547    -0.12100
C205        C  0.37267678  0.07080944  0.12156352     0.02000
C206        C  0.41323366  0.09099333  0.12118783    -0.00300
C207        C  0.43374208  0.12933284  0.11226579    -0.12000
C208        C  0.41493357  0.14806309  0.10509451     0.01900
H209        H  0.32289755  0.07345928  0.11565162     0.14900
H210        H  0.46473587  0.14501776  0.11087247     0.14900
C211        C  0.43835166  0.18727017  0.09561700     0.36500
C212        C  0.34893110  0.03118091  0.12987332     0.36400
N213        N  0.45724522  0.21866024  0.08799809    -0.43800
N214        N  0.32913490  0.99942977  0.13635848    -0.43800
C215        C  0.41281744  0.32540208  0.12144409    -0.00200
C216        C  0.38153718  0.30878517  0.10227785    -0.12100
C217        C  0.36175261  0.26958431  0.09565444     0.02000
C218        C  0.37381847  0.24658428  0.10783808    -0.00300
C219        C  0.40638014  0.26371364  0.12563204    -0.12000
C220        C  0.42563836  0.30254649  0.13269832     0.01900
H221        H  0.37148980  0.32601417  0.09333104     0.14900
H222        H  0.41601242  0.24635879  0.13506825     0.14900
C223        C  0.45838875  0.31799118  0.15167479     0.36500
C224        C  0.32929787  0.25368438  0.07636091     0.36400
N225        N  0.48456059  0.33010250  0.16691470    -0.43800
N226        N  0.30324138  0.24083918  0.06094102    -0.43800
C227        C  0.17480183  0.08732824  0.13186544    -0.00200
C228        C  0.19819077  0.07585154  0.14392058    -0.12100
C229        C  0.23659035  0.09294406  0.13577709     0.02000
C230        C  0.25251398  0.12246062  0.11507674    -0.00300
C231        C  0.22887252  0.13309769  0.10227759    -0.12000
C232        C  0.19031022  0.11572689  0.11022913     0.01900
H233        H  0.18669914  0.05384034  0.16024717     0.14900
H234        H  0.24079615  0.15559865  0.08629846     0.14900
C235        C  0.16818252  0.12901507  0.09656956     0.36500
C236        C  0.25934135  0.08116257  0.15052061     0.36400
N237        N  0.15063545  0.13980502  0.08550694    -0.43800
N238        N  0.27731093  0.07156274  0.16251836    -0.43800
C239        C  0.37045748  0.12130336  0.47767017    -0.00200
C240        C  0.39884029  0.13538700  0.45635875    -0.12100
C241        C  0.41678913  0.11598080  0.44908620     0.02000
C242        C  0.40596826  0.08152003  0.46304501    -0.00300
C243        C  0.37720400  0.06701443  0.48405145    -0.12000
C244        C  0.36142503  0.08976567  0.00282903     0.01900
H245        H  0.40629595  0.16110880  0.44475891     0.14900
H246        H  0.37041209  0.04323562  0.00723443     0.14900
C247        C  0.33389213  0.07597901  0.02594826     0.36500
C248        C  0.44477391  0.13102962  0.42626511     0.36400
N249        N  0.31205774  0.06496878  0.04463600    -0.43800
N250        N  0.46688071  0.14306181  0.40777028    -0.43800
C251        C  0.41051913  0.32056573  0.46500234    -0.00200
C252        C  0.42990935  0.30189786  0.45998613    -0.12100
C253        C  0.40234594  0.25793784  0.95476827     0.02000
C254        C  0.37692792  0.24311556  0.48069292    -0.00300
C255        C  0.35876600  0.26283614  0.48730598    -0.12000
C256        C  0.37527589  0.30122466  0.47986051     0.01900
H257        H  0.44021578  0.30648687  0.92884560     0.14900
H258        H  0.33084807  0.24790751  0.49754039     0.14900
C259        C  0.35408603  0.31904170  0.48613782     0.36500
C260        C  0.40825651  0.23308948  0.93674359     0.36400
N261        N  0.33699476  0.33317692  0.49126417    -0.43800
N262        N  0.41308049  0.21378207  0.92164172    -0.43800
C263        C  0.25217001  0.12165724  0.48266717    -0.00200
C264        C  0.23426602  0.14248913  0.99572954    -0.12100
C265        C  0.19409387  0.12330329  0.48763975     0.02000
C266        C  0.17337692  0.08948970  0.47104524    -0.00300
C267        C  0.19189308  0.07141569  0.46157781    -0.12000
C268        C  0.23079853  0.08699504  0.46694556     0.01900
H269        H  0.25034915  0.17102666  0.00498825     0.14900
H270        H  0.17584058  0.04528579  0.44926481     0.14900
C271        C  0.24810615  0.06796803  0.45410634     0.36500
C272        C  0.17972011  0.14999695  0.99225691     0.36400
N273        N  0.26177814  0.05265082  0.44363232    -0.43800
N274        N  0.16704895  0.16880384  0.99553333    -0.43800
C275        C  0.35144197  0.14223308  0.48338379     0.80200
N276        N  0.37222029  0.18101575  0.48297503    -0.78100
C277        C  0.35471621  0.20083882  0.48438893     0.82600
N278        N  0.31576087  0.18117277  0.48557403    -0.78100
C279        C  0.29451744  0.14230296  0.48559464     0.82700
N280        N  0.31265628  0.12304783  0.48457382    -0.79800
C281        C  0.34916923  0.15123747  0.61120807     0.80200
N282        N  0.36725543  0.18978240  0.61006426    -0.78100
C283        C  0.34711541  0.20696867  0.60929346     0.82600
N284        N  0.30819760  0.18524549  0.61026790    -0.78100
C285        C  0.28970128  0.14650918  0.61153165     0.82700
N286        N  0.31033579  0.12985542  0.61191601    -0.79800
C287        C  0.13823413  0.35839563  0.85861276     0.80200
N288        N  0.11696441  0.31956653  0.85836508    -0.78100
C289        C  0.13403426  0.29927051  0.85913649     0.82600
N290        N  0.17288289  0.31820756  0.86024914    -0.78100
C291        C  0.19447985  0.35699906  0.86027904     0.82700
N292        N  0.17710426  0.37701698  0.86004972    -0.79800
C293        C  0.13020104  0.35926321  0.73650582     0.80200
N294        N  0.11324395  0.32058754  0.73654048    -0.78100
C295        C  0.13477989  0.30480812  0.73517075     0.82600
N296        N  0.17346240  0.32783138  0.73327563    -0.78100
C297        C  0.19077359  0.36636984  0.73337455     0.82700
N298        N  0.16906670  0.38183435  0.73481700    -0.79800
C299        C  0.06155700  0.43881998  0.88032905     0.42400
N300        N  0.01631731  0.44915994  0.88529211     0.01300
C301        C  0.04456822  0.12769952  0.91965688    -0.06600
H302        H  0.10260363  0.08471073  0.99799607     0.06800
C303        C  0.46204563  0.46494973  0.51063378    -0.06900
Co304      Co  0.05580121  0.03770256  0.89538535     0.74200
N305        N  0.07721142  0.06261320  0.95636253    -0.26100
Co306      Co  0.02444395  0.05749488  0.95787093     0.74100
C307        C  0.49464543  0.49329970  0.52788480     0.42500
N308        N  0.44338857  0.41857641  0.94495589     0.00900
N309        N  0.00770258  0.02010951  0.99238795     0.01000
N310        N  0.06586417  0.11384837  0.87959037    -0.47000
H311        H  0.10785570  0.50333096  0.88148681     0.06800
N312        N  0.08949985  0.05467603  0.93282476     0.01300
N313        N  0.47003615  0.05056076  0.96015519     0.01000
C314        C  0.42586642  0.06168167  0.96804910     0.42600
N315        N  0.45325268  0.41077006  0.92014322    -0.25600
C316        C  0.02507686  0.03761589  0.83411391    -0.06500
N317        N  0.02306059  0.42152661  0.88171353    -0.46700
N318        N  0.46408390  0.07845141  0.96504465    -0.46900
C319        C  0.48888113  0.01185691  0.81504797     0.42400
N320        N  0.05335939  0.08630067  0.89887101     0.01300
N321        N  0.41440658  0.44176804  0.88971253    -0.25600
N322        N  0.04803894  0.48352626  0.88575299    -0.26100
N323        N  0.40439402  0.44941380  0.91448849     0.00900
H324        H  0.38440463  0.41871961  0.84967038     0.06800
H325        H  0.37855885  0.99755479  0.96654122     0.06800
N326        N  0.04107254  0.09378262  0.92258294    -0.26100
N327        N  0.47868493  0.48620805  0.98443177    -0.25700
N328        N  0.48114815  0.48524664  0.85066112     0.01300
C329        C  0.13572902  0.07456915  0.96309804     0.42700
C330        C  0.44747147  0.37566662  0.92168515    -0.07000
N331        N  0.43798398  0.01646572  0.95980334    -0.25700
H332        H  0.43675693  0.43824027  0.51716645     0.06800
N333        N  0.12462473  0.06159056  0.93588203    -0.47000
H334        H  0.45065403  0.36063941  0.90394918     0.06800
C335        C  0.35507125  0.42948364  0.88749010     0.42500
C336        C  0.07820245  0.47994763  0.88272618    -0.06500
Co337      Co  0.46729033  0.44739215  0.88488118     0.73800
N338        N  0.43024704  0.39008793  0.96351809    -0.46700
C339        C  0.06103386  0.14095348  0.89102944     0.42800
N340        N  0.46234940  0.47807702  0.82602812    -0.46700
Co341      Co  0.44086279  0.46720354  0.94984666     0.73900
C342        C  0.40834319  0.02051987  0.96482851    -0.07000
C343        C  0.10436785  0.07531273  0.97666542    -0.06600
N344        N  0.02036313  0.01991440  0.85923626    -0.26100
N345        N  0.02141832  0.02223720  0.51876622    -0.46900
H346        H  0.03837939  0.14211847  0.93613482     0.06800
C347        C  0.38505465  0.42886576  0.87122677    -0.07000
Cl348      Cl  0.49576705  0.00243515  0.92387168    -0.50000
C349        C  0.43205126  0.36183063  0.95060801     0.42500
H350        H  0.04943954  0.06537728  0.82825369     0.06800
N351        N  0.36902258  0.44201037  0.91421041    -0.46700
C352        C  0.13017818  0.06841217  0.64211264     0.42400
N353        N  0.07463317  0.05946202  0.64854600     0.01300
C354        C  0.45238720  0.47850426  0.76097471    -0.06600
H355        H  0.98328756  0.38646398  0.71122677     0.06800
C356        C  0.41913807  0.39676598  0.61995485    -0.06900
Co357      Co  0.04612256  0.03427264  0.70823335     0.74200
N358        N  0.00146915  0.44538408  0.70564891    -0.26100
Co359      Co  0.45376386  0.45030199  0.69965265     0.74100
C360        C  0.42097028  0.36731336  0.63553027     0.42500
N361        N  0.47243998  0.49210968  0.60097238     0.00900
N362        N  0.43886325  0.41531189  0.66350954     0.01000
N363        N  0.01760901  0.03417395  0.76857573    -0.47000
H364        H  0.13179942  0.04989700  0.68850893     0.06800
N365        N  0.03512859  0.47780521  0.70736465     0.01300
N366        N  0.40453079  0.45119583  0.69410238     0.01000
C367        C  0.34937439  0.44320173  0.70071385     0.42600
N368        N  0.00897293  0.02375524  0.60846691    -0.25600
C369        C  0.06158091  0.11513654  0.72280979    -0.06500
N370        N  0.10247479  0.07127951  0.62951243    -0.46700
N371        N  0.37688987  0.43994309  0.71321682    -0.46900
C372        C  0.06109334  0.14496495  0.70662357     0.42400
N373        N  0.00863857  0.01831178  0.74270530     0.01300
N374        N  0.47559916  0.06325637  0.63866192    -0.25600
N375        N  0.08251561  0.04950678  0.67314932    -0.26100
N376        N  0.44191247  0.03085696  0.63791104     0.00900
H377        H  0.49326528  0.12218198  0.63508208     0.06800
H378        H  0.34803150  0.46221314  0.65436011     0.06800
N379        N  0.46912167  0.48599076  0.73514092    -0.26100
N380        N  0.43071962  0.42523794  0.63900176    -0.25700
N381        N  0.04151872  0.09608287  0.67937905     0.01300
C382        C  0.04741653  0.43439224  0.71536721     0.42700
C383        C  0.02671032  0.02807573  0.58340771    -0.07000
N384        N  0.39686073  0.46138478  0.66950277    -0.25700
H385        H  0.40966258  0.39647966  0.59825124     0.06800
N386        N  0.06328235  0.47251779  0.71320855    -0.47000
H387        H  0.05403109  0.05281068  0.57713193     0.06800
C388        C  0.42902452  0.07410546  0.63310890     0.42500
C389        C  0.11700801  0.05399207  0.67116452    -0.06500
Co390      Co  0.02558621  0.06069673  0.64342092     0.73800
N391        N  0.46493047  0.47443099  0.57584262    -0.46700
C392        C  0.48624003  0.01253586  0.78376310     0.42800
N393        N  0.04881231  0.13131697  0.67983612    -0.46700
Co394      Co  0.43394512  0.47659011  0.63472489     0.73900
C395        C  0.36256387  0.45747000  0.67157473    -0.07000
C396        C  0.00620680  0.41626859  0.71029203    -0.06600
N397        N  0.04927839  0.08607340  0.70408930    -0.26100
N398        N  0.43297985  0.38063523  0.66248010    -0.45900
H399        H  0.42663179  0.45194909  0.76712436     0.06800
C400        C  0.47050027  0.09230959  0.63584169    -0.07000
Cl401      Cl  0.49217546  0.00825300  0.67344723    -0.50000
C402        C  0.49594481  0.49598761  0.55922549     0.42500
H403        H  0.07188576  0.11612580  0.74435131     0.06800
N404        N  0.41323601  0.03600046  0.63452656    -0.46700
C405        C  0.11640834  0.26359843  0.72943640    -0.00200
C406        C  0.12675374  0.25276708  0.70419504    -0.12100
C407        C  0.10911934  0.21430024  0.69649361     0.02000
C408        C  0.08073325  0.18576210  0.71444246    -0.00300
C409        C  0.07124733  0.19642419  0.74023334    -0.12000
C410        C  0.08861842  0.23516480  0.74772127     0.01900
H411        H  0.14834713  0.27456038  0.69016278     0.14900
H412        H  0.04989388  0.17450696  0.75430024     0.14900
C413        C  0.07853476  0.24494338  0.77461316     0.36500
C414        C  0.12165852  0.20493108  0.67054600     0.36400
N415        N  0.07050803  0.25251108  0.79632822    -0.43800
N416        N  0.13184695  0.19749265  0.64981023    -0.43800
C417        C  0.23236183  0.39060855  0.72807540    -0.00200
C418        C  0.25655634  0.38180124  0.74225406    -0.12100
C419        C  0.29525698  0.39982708  0.73482157     0.02000
C420        C  0.31031251  0.42718461  0.71243519    -0.00300
C421        C  0.28646096  0.43744233  0.69940210    -0.12000
C422        C  0.24778498  0.41943218  0.70691927     0.01900
H423        H  0.24482220  0.35980008  0.75862742     0.14900
H424        H  0.29765319  0.45874187  0.68255469     0.14900
C425        C  0.22410805  0.42899836  0.69091132     0.36500
C426        C  0.31779087  0.38776820  0.74953172     0.36400
N427        N  0.20520564  0.43663106  0.67796265    -0.43800
N428        N  0.33562022  0.37789467  0.76139902    -0.43800
C429        C  0.10719538  0.37729142  0.73434954    -0.00200
C430        C  0.12694628  0.41752163  0.73463552    -0.12100
C431        C  0.10830037  0.43670501  0.72893796     0.02000
C432        C  0.06847714  0.41563389  0.72301750    -0.00300
C433        C  0.04828354  0.37548971  0.72416531    -0.12000
C434        C  0.06699067  0.35622194  0.72968512     0.01900
H435        H  0.15759856  0.43449075  0.73862618     0.14900
H436        H  0.01768579  0.35869887  0.72017155     0.14900
C437        C  0.04388039  0.31490719  0.72950285     0.36500
C438        C  0.13139786  0.47803882  0.72892654     0.36400
N439        N  0.02515215  0.28180327  0.72926592    -0.43800
N440        N  0.15022493  0.51113876  0.72896394    -0.43800
C441        C  0.11099315  0.25732880  0.86342132    -0.00200
C442        C  0.12419413  0.23517452  0.85166577    -0.12100
C443        C  0.10704760  0.19653979  0.85888291     0.02000
C444        C  0.07658592  0.17966417  0.87895968    -0.00300
C445        C  0.06214244  0.20131831  0.88941015    -0.12000
C446        C  0.07859526  0.23957632  0.88164787     0.01900
H447        H  0.14868904  0.24839876  0.83732712     0.14900
H448        H  0.03846528  0.18867632  0.90441679     0.14900
C449        C  0.06295795  0.26025743  0.89432971     0.36500
C450        C  0.12274647  0.17584349  0.84636019     0.36400
N451        N  0.05025671  0.27669161  0.90444343    -0.43800
N452        N  0.13539315  0.15940357  0.83615936    -0.43800
C453        C  0.23556271  0.37669340  0.86692420    -0.00200
C454        C  0.26275987  0.39361065  0.84492892    -0.12100
C455        C  0.30204788  0.41146664  0.85099199     0.02000
C456        C  0.31432045  0.41243643  0.87954600    -0.00300
C457        C  0.28682603  0.39623432  0.90150538    -0.12000
C458        C  0.24777125  0.37830331  0.89540626     0.01900
H459        H  0.25328354  0.39271955  0.82304415     0.14900
H460        H  0.29575015  0.39686718  0.92351872     0.14900
C461        C  0.22061073  0.36160570  0.91872894     0.36500
C462        C  0.32898950  0.42971183  0.82776004     0.36400
N463        N  0.19877388  0.34818413  0.93734594    -0.43800
N464        N  0.35058229  0.44448773  0.80914140    -0.43800
C465        C  0.08179064  0.41893235  0.87466825    -0.00200
C466        C  0.06457777  0.38687457  0.85641713    -0.12100
C467        C  0.08278698  0.36728169  0.85015510     0.02000
C468        C  0.11910285  0.37985154  0.86227125    -0.00300
C469        C  0.13629981  0.41204990  0.88046264    -0.12000
C470        C  0.11785419  0.43128416  0.88700447     0.01900
H471        H  0.03689682  0.37725901  0.84679647     0.14900
H472        H  0.16357796  0.42131576  0.89065211     0.14900
C473        C  0.13526759  0.46162365  0.90814774     0.36500
C474        C  0.06374849  0.33489641  0.83083686     0.36400
N475        N  0.14909439  0.48558605  0.92537163    -0.43800
N476        N  0.04817671  0.30895218  0.81536703    -0.43800
C477        C  0.37096659  0.13250719  0.61536637    -0.00200
C478        C  0.35095802  0.09237863  0.61327414    -0.12100
C479        C  0.36887514  0.07257657  0.61912327     0.02000
C480        C  0.40793270  0.09303794  0.62731807    -0.00300
C481        C  0.42796525  0.13302624  0.62933423    -0.12000
C482        C  0.41026954  0.15291479  0.62321932     0.01900
H483        H  0.32094048  0.07610217  0.60709653     0.14900
H484        H  0.45782050  0.14923451  0.63579839     0.14900
C485        C  0.43382054  0.19412012  0.62548220     0.36500
C486        C  0.34623090  0.03140814  0.61615557     0.36400
N487        N  0.45349319  0.22708809  0.62720882    -0.43800
N488        N  0.32788662  0.99844185  0.61368545    -0.43800
C489        C  0.40498655  0.32725245  0.62655962    -0.00200
C490        C  0.37604766  0.31067631  0.60542295    -0.12100
C491        C  0.35741620  0.27166031  0.59865174     0.02000
C492        C  0.36770472  0.24872485  0.61323275    -0.00300
C493        C  0.39763220  0.26563625  0.63340373    -0.12000
C494        C  0.41655038  0.30451575  0.63993231     0.01900
H495        H  0.36714024  0.32783487  0.59468066     0.14900
H496        H  0.40558319  0.24814981  0.64484203     0.14900
C497        C  0.44806662  0.32019319  0.66011175     0.36500
C498        C  0.32844111  0.25597710  0.57642543     0.36400
N499        N  0.47345265  0.33247772  0.67612730    -0.43800
N500        N  0.30536365  0.24335403  0.55851275    -0.43800
C501        C  0.16955783  0.08532593  0.63093645    -0.00200
C502        C  0.19314429  0.07487716  0.64406255    -0.12100
C503        C  0.23204957  0.09354406  0.63742083     0.02000
C504        C  0.24805660  0.12317667  0.61682863    -0.00300
C505        C  0.22421180  0.13244341  0.60263217    -0.12000
C506        C  0.18518118  0.11372428  0.60931289     0.01900
H507        H  0.18149205  0.05279563  0.66033269     0.14900
H508        H  0.23632790  0.15499287  0.58668802     0.14900
C509        C  0.16270563  0.12578719  0.59453475     0.36500
C510        C  0.25514658  0.08353927  0.65379853     0.36400
N511        N  0.14485440  0.13560233  0.58262950    -0.43800
N512        N  0.27355903  0.07555797  0.66704812    -0.43800
C513        C  0.37250870  0.12401941  0.98815045    -0.00200
C514        C  0.40126122  0.13729090  0.96718622    -0.12100
C515        C  0.41818289  0.11691487  0.96005154     0.02000
C516        C  0.40702910  0.08266659  0.97443618    -0.00300
C517        C  0.37862206  0.06927788  0.99574946    -0.12000
C518        C  0.35962951  0.08678344  0.49165413     0.01900
H519        H  0.40973005  0.16311373  0.95546671     0.14900
H520        H  0.36923729  0.04077463  0.49514096     0.14900
C521        C  0.33199699  0.07202366  0.51471073     0.36500
C522        C  0.44504372  0.13050691  0.93648168     0.36400
N523        N  0.31007841  0.06027313  0.53334444    -0.43800
N524        N  0.46611525  0.14119261  0.91732398    -0.43800
C525        C  0.41387891  0.32191702  0.96166482    -0.00200
C526        C  0.42082370  0.29650866  0.94699933    -0.12100
C527        C  0.41403412  0.26384165  0.46816968     0.02000
C528        C  0.37653152  0.24384549  0.97813100    -0.00300
C529        C  0.36984991  0.26912241  0.99317260    -0.12000
C530        C  0.38825997  0.30780700  0.98535852     0.01900
H531        H  0.45753446  0.31707484  0.44928654     0.14900
H532        H  0.34989923  0.25849639  0.01100521     0.14900
C533        C  0.37910932  0.33162789  0.00165740     0.36500
C534        C  0.43663099  0.24734754  0.46268150     0.36400
N535        N  0.37148739  0.35040222  0.01487221    -0.43800
N536        N  0.45556219  0.23500801  0.45840468    -0.43800
C537        C  0.25284084  0.12292479  0.99008033    -0.00200
C538        C  0.23311279  0.13894336  0.49335078    -0.12100
C539        C  0.19581915  0.12680776  0.98808205     0.02000
C540        C  0.17494884  0.09060305  0.97451917    -0.00300
C541        C  0.19249978  0.06990659  0.97054974    -0.12000
C542        C  0.23088334  0.08535882  0.97838980     0.01900
H543        H  0.24905793  0.16551543  0.50541072     0.14900
H544        H  0.17625886  0.04172186  0.96076981     0.14900
C545        C  0.24703837  0.06253582  0.97254834     0.36500
C546        C  0.17712915  0.14414421  0.49731149     0.36400
N547        N  0.25974321  0.04403021  0.96785100    -0.43800
N548        N  0.16385327  0.16115878  0.50508177    -0.43800
C549        C  0.34830312  0.64215045  0.97636601     0.80200
N550        N  0.37025985  0.68096626  0.97784299    -0.78100
C551        C  0.35410774  0.70211899  0.97758159     0.82600
N552        N  0.31535072  0.68410943  0.97596371    -0.78100
C553        C  0.29319656  0.64539779  0.97431576     0.82700
N554        N  0.30976467  0.62470924  0.97438600    -0.79800
C555        C  0.35552702  0.65013004  0.11201067     0.80200
N556        N  0.37338398  0.68878342  0.11362182    -0.78100
C557        C  0.35284262  0.70564904  0.11493880     0.82600
N558        N  0.31395842  0.68334126  0.11541832    -0.78100
C559        C  0.29565812  0.64465163  0.11413860     0.82700
N560        N  0.31659560  0.62838704  0.11236319    -0.79800
C561        C  0.13946088  0.85673239  0.35960321     0.80200
N562        N  0.11706120  0.81812430  0.35873689    -0.78100
C563        C  0.13251847  0.79646356  0.35899941     0.82600
N564        N  0.17124384  0.81359181  0.36051233    -0.78100
C565        C  0.19425612  0.85241002  0.36165813     0.82700
N566        N  0.17817954  0.87376589  0.36156585    -0.79800
C567        C  0.13690999  0.85700340  0.23493247     0.80200
N568        N  0.11888688  0.81824101  0.23443020    -0.78100
C569        C  0.13944022  0.80141068  0.23365507     0.82600
N570        N  0.17828434  0.82351592  0.23278571    -0.78100
C571        C  0.19672237  0.86220283  0.23345082     0.82700
N572        N  0.17585486  0.87860466  0.23450842    -0.79800
C573        C  0.06704630  0.94126772  0.38389830     0.42400
N574        N  0.02146452  0.95115820  0.39012378     0.01300
C575        C  0.03573126  0.62407320  0.41695672    -0.06600
H576        H  0.10234572  0.58463938  0.49120715     0.06800
C577        C  0.46963977  0.96783077  0.01610352    -0.06900
Co578      Co  0.04986025  0.53692662  0.39017541     0.74200
N579        N  0.07386058  0.56132356  0.45073572    -0.26100
Co580      Co  0.02077475  0.55534032  0.45443587     0.74100
C581        C  0.50231388  0.99573397  0.03346397     0.42500
N582        N  0.44268318  0.91822482  0.45065855     0.00900
N583        N  0.00513967  0.51701973  0.48823345     0.01000
N584        N  0.05554005  0.61152680  0.37553532    -0.47000
H585        H  0.11276133  0.00612256  0.38601885     0.06800
N586        N  0.08494051  0.55422865  0.42625138     0.01300
N587        N  0.46418720  0.54604780  0.45134513     0.01000
C588        C  0.42018816  0.55779686  0.45647056     0.42600
N589        N  0.45503898  0.91036888  0.42711184    -0.25600
C590        C  0.01978904  0.53663742  0.32937046    -0.06500
N591        N  0.02848328  0.92390318  0.38544575    -0.46700
N592        N  0.45841883  0.57433097  0.45437386    -0.46900
C593        C  0.48671112  0.50324002  0.30899805     0.42400
N594        N  0.04614246  0.58461670  0.39489430     0.01300
N595        N  0.41763386  0.93945238  0.39244656    -0.25600
N596        N  0.05310654  0.98551871  0.39134578    -0.26100
N597        N  0.40577068  0.94771927  0.41599345     0.00900
H598        H  0.39042517  0.91367180  0.35230537     0.06800
H599        H  0.37268766  0.49375340  0.45684918     0.06800
N600        N  0.03488070  0.59148506  0.41938804    -0.26100
N601        N  0.47375442  0.98548890  0.48958132    -0.25700
N602        N  0.48860437  0.98309276  0.35665026     0.01300
C603        C  0.13426675  0.57691987  0.45366082     0.42700
C604        C  0.45212046  0.87686813  0.43056157    -0.07000
N605        N  0.43204309  0.51207380  0.45136304    -0.25700
H606        H  0.44440595  0.94094492  0.02242710     0.06800
N607        N  0.12086093  0.56323943  0.42702612    -0.47000
H608        H  0.45843898  0.86221145  0.41437253     0.06800
C609        C  0.35668907  0.92333496  0.38762250     0.42500
C610        C  0.08339104  0.98230685  0.38751916    -0.06500
Co611      Co  0.47132480  0.94550603  0.39122342     0.73800
N612        N  0.43031277  0.89105821  0.47024021    -0.46700
C613        C  0.04930586  0.63737184  0.38768494     0.42800
N614        N  0.47152003  0.97629790  0.33132216    -0.46700
Co615      Co  0.43945791  0.96644241  0.45301406     0.73900
C616        C  0.40248533  0.51652700  0.45496633    -0.07000
C617        C  0.10294239  0.57540845  0.46957451    -0.06600
N618        N  0.01418412  0.51934106  0.35470447    -0.26100
N619        N  0.02150240  0.52482545  0.01329218    -0.46900
H620        H  0.02892053  0.63719685  0.43402783     0.06800
C621        C  0.38886863  0.92418577  0.37314403    -0.07000
Cl622      Cl  0.49013438  0.49644039  0.41807415    -0.50000
C623        C  0.43572067  0.86415879  0.45917720     0.42500
H624        H  0.04484483  0.56383013  0.32339902     0.06800
N625        N  0.36981053  0.93843405  0.41406451    -0.46700
C626        C  0.13470310  0.56611064  0.13956025     0.42400
N627        N  0.07932199  0.55756970  0.14586059     0.01300
C628        C  0.46301548  0.97747743  0.26641931    -0.06600
H629        H  0.99295263  0.88823557  0.21301051     0.06800
C630        C  0.42503466  0.89644140  0.12515275    -0.06900
Co631      Co  0.04991769  0.53094996  0.20525994     0.74200
N632        N  0.01118738  0.94727134  0.20927921    -0.26100
Co633      Co  0.46235210  0.94933544  0.20476134     0.74100
C634        C  0.42678506  0.86668221  0.14034894     0.42500
N635        N  0.48014692  0.99316911  0.10672650     0.00900
N636        N  0.44620205  0.91472766  0.16844015     0.01000
N637        N  0.01807608  0.53080597  0.26453754    -0.47000
H638        H  0.13566986  0.54617924  0.18550986     0.06800
N639        N  0.04491366  0.97963779  0.21075038     0.01300
N640        N  0.41339873  0.95106603  0.20034457     0.01000
C641        C  0.35763125  0.94150618  0.20670516     0.42600
N642        N  0.01329064  0.52369191  0.10503439    -0.25600
C643        C  0.06453547  0.61117480  0.22147659    -0.06500
N644        N  0.10740810  0.56970800  0.12697722    -0.46700
N645        N  0.38521986  0.93833148  0.21921268    -0.46900
C646        C  0.06340627  0.64109821  0.20589611     0.42400
N647        N  0.01135210  0.51403092  0.23909376     0.01300
N648        N  0.48302206  0.56098911  0.13331757    -0.25600
N649        N  0.08684056  0.54696548  0.17035044    -0.26100
N650        N  0.44936232  0.52864947  0.13152963     0.00900
H651        H  0.50106644  0.62013351  0.12998478     0.06800
H652        H  0.35615939  0.96099780  0.16076073     0.06800
N653        N  0.47936375  0.98475564  0.24048509    -0.26100
N654        N  0.43789342  0.92512632  0.14422175    -0.25700
N655        N  0.04588008  0.59345184  0.17764573     0.01300
C656        C  0.05725797  0.93587768  0.21634840     0.42700
C657        C  0.02980644  0.52954002  0.07915097    -0.07000
N658        N  0.40570940  0.96174335  0.17597545    -0.25700
H659        H  0.41480283  0.89613918  0.10370986     0.06800
N660        N  0.07326350  0.97413005  0.21507511    -0.47000
H661        H  0.05660299  0.55484733  0.07274865     0.06800
C662        C  0.43695440  0.57234573  0.12572993     0.42500
C663        C  0.12115936  0.55103307  0.16836074    -0.06500
Co664      Co  0.03032685  0.55920391  0.14111273     0.73800
N665        N  0.47253593  0.97586576  0.08142174    -0.46700
C666        C  0.48615764  0.50371076  0.27765087     0.42800
N667        N  0.05208833  0.62823047  0.17883283    -0.46700
Co668      Co  0.44217694  0.97722074  0.14087754     0.73900
C669        C  0.37110049  0.95697348  0.17799608    -0.07000
C670        C  0.01594521  0.91802632  0.21250098    -0.06600
N671        N  0.05328814  0.58285654  0.20217268    -0.26100
N672        N  0.43966370  0.87980041  0.16714751    -0.45900
H673        H  0.43677929  0.95136900  0.27255279     0.06800
C674        C  0.47822856  0.59025924  0.12999873    -0.07000
Cl675      Cl  0.49807491  0.50373147  0.16784506    -0.50000
C676        C  0.50353392  0.99771884  0.06482085     0.42500
H677        H  0.07414093  0.61152557  0.24315238     0.06800
N678        N  0.42105770  0.53412523  0.12689322    -0.46700
C679        C  0.12008073  0.76003108  0.22815342    -0.00200
C680        C  0.13168103  0.74846444  0.20401838    -0.12100
C681        C  0.11338118  0.70991350  0.19648810     0.02000
C682        C  0.08349151  0.68189969  0.21380354    -0.00300
C683        C  0.07240491  0.69323713  0.23845744    -0.12000
C684        C  0.09000138  0.73220104  0.24543930     0.01900
H685        H  0.15459376  0.76979912  0.19053066     0.14900
H686        H  0.04943678  0.67175847  0.25180474     0.14900
C687        C  0.07714273  0.74295985  0.27044336     0.36500
C688        C  0.12617767  0.69990697  0.17099966     0.36400
N689        N  0.06679777  0.75168837  0.29040869    -0.43800
N690        N  0.13625533  0.69185477  0.15051341    -0.43800
C691        C  0.23887949  0.88581829  0.22980154    -0.00200
C692        C  0.26077242  0.87156783  0.24013441    -0.12100
C693        C  0.29988634  0.88992608  0.23392387     0.02000
C694        C  0.31792160  0.92360646  0.21723953    -0.00300
C695        C  0.29652647  0.93883478  0.20805714    -0.12000
C696        C  0.25736401  0.92033135  0.21397937     0.01900
H697        H  0.24696389  0.84514791  0.25227278     0.14900
H698        H  0.31021387  0.96471685  0.19528843     0.14900
C699        C  0.23677342  0.93608999  0.20147713     0.36500
C700        C  0.31972584  0.87167604  0.24293397     0.36400
N701        N  0.22062101  0.94891878  0.19118192    -0.43800
N702        N  0.33547277  0.85680389  0.24992051    -0.43800
C703        C  0.11511531  0.87622879  0.23240637    -0.00200
C704        C  0.13592541  0.91653514  0.23216404    -0.12100
C705        C  0.11808225  0.93661186  0.22690028     0.02000
C706        C  0.07801362  0.91639947  0.22234695    -0.00300
C707        C  0.05697001  0.87623906  0.22358597    -0.12000
C708        C  0.07486001  0.85607576  0.22830862     0.01900
H709        H  0.16668679  0.93284138  0.23557644     0.14900
H710        H  0.02620723  0.86004590  0.22051446     0.14900
C711        C  0.05072177  0.81480392  0.22814163     0.36500
C712        C  0.14213095  0.97787316  0.22596563     0.36400
N713        N  0.03109279  0.78175576  0.22785442    -0.43800
N714        N  0.16173728  0.01090301  0.22521841    -0.43800
C715        C  0.10708816  0.75516790  0.36385119    -0.00200
C716        C  0.10761152  0.72912237  0.34491146    -0.12100
C717        C  0.08559587  0.68977384  0.35055471     0.02000
C718        C  0.06469065  0.67650375  0.37657564    -0.00300
C719        C  0.06176093  0.70252907  0.39404724    -0.12000
C720        C  0.08240588  0.74146141  0.38782117     0.01900
H721        H  0.12509051  0.73953893  0.32568660     0.14900
H722        H  0.04439493  0.69293017  0.41328756     0.14900
C723        C  0.07927054  0.76688838  0.40736898     0.36500
C724        C  0.08453136  0.66402102  0.32901464     0.36400
N725        N  0.07654046  0.78715051  0.42296381    -0.43800
N726        N  0.08331373  0.64360351  0.31137574    -0.43800
C727        C  0.23581824  0.87100052  0.36752744    -0.00200
C728        C  0.25893727  0.86544079  0.34871242    -0.12100
C729        C  0.29840819  0.88239379  0.35406802     0.02000
C730        C  0.31548303  0.90543483  0.37897700    -0.00300
C731        C  0.29175086  0.91053952  0.39772141    -0.12000
C732        C  0.25251474  0.89348727  0.39238222     0.01900
H733        H  0.24607101  0.84778015  0.32971061     0.14900
H734        H  0.30367193  0.92752166  0.41712053     0.14900
C735        C  0.22952780  0.89765346  0.41369548     0.36500
C736        C  0.31967284  0.87451293  0.33375951     0.36400
N737        N  0.21101486  0.90064840  0.43087002    -0.43800
N738        N  0.33586058  0.86749345  0.31709142    -0.43800
C739        C  0.08693537  0.92121450  0.37661828    -0.00200
C740        C  0.06598349  0.88577070  0.36240662    -0.12100
C741        C  0.08265621  0.86489313  0.35551745     0.02000
C742        C  0.12139944  0.87938894  0.36303880    -0.00300
C743        C  0.14252315  0.91522128  0.37662046    -0.12000
C744        C  0.12578081  0.93595250  0.38357588     0.01900
H745        H  0.03627852  0.87418302  0.35657941     0.14900
H746        H  0.17203191  0.92663471  0.38294749     0.14900
C747        C  0.14919308  0.97118707  0.39914882     0.36500
C748        C  0.05903324  0.82884975  0.34065486     0.36400
N749        N  0.16905678  0.99938492  0.41151406    -0.43800
N750        N  0.03985026  0.79992289  0.32887645    -0.43800
C751        C  0.37758562  0.63108399  0.11276658    -0.00200
C752        C  0.35691305  0.59101126  0.11529232    -0.12100
C753        C  0.37532062  0.57128094  0.11917217     0.02000
C754        C  0.41580809  0.59157713  0.12033667    -0.00300
C755        C  0.43667868  0.63143602  0.11636511    -0.12000
C756        C  0.41819411  0.65125756  0.11249713     0.01900
H757        H  0.32584879  0.57461017  0.11479695     0.14900
H758        H  0.46772868  0.64753749  0.11634794     0.14900
C759        C  0.44204545  0.69208654  0.10809483     0.36500
C760        C  0.35125189  0.53027647  0.12232880     0.36400
N761        N  0.46140317  0.72476559  0.10447827    -0.43800
N762        N  0.33120749  0.49745454  0.12467523    -0.43800
C763        C  0.41008716  0.82658718  0.13143074    -0.00200
C764        C  0.37563906  0.80790491  0.11583425    -0.12100
C765        C  0.35682637  0.76877125  0.10956136     0.02000
C766        C  0.37278937  0.74768334  0.11884130    -0.00300
C767        C  0.40822524  0.76701476  0.13333725    -0.12000
C768        C  0.42683855  0.80605077  0.13968756     0.01900
H769        H  0.36273441  0.82363395  0.10925020     0.14900
H770        H  0.42106953  0.75144169  0.14044438     0.14900
C771        C  0.46354679  0.82460043  0.15411273     0.36500
C772        C  0.32156848  0.75139942  0.09327126     0.36400
N773        N  0.49310638  0.83961802  0.16544800    -0.43800
N774        N  0.29336852  0.73777007  0.08017393    -0.43800
C775        C  0.17428188  0.58317109  0.12891882    -0.00200
C776        C  0.19559629  0.56822058  0.13896505    -0.12100
C777        C  0.23477907  0.58643984  0.13316700     0.02000
C778        C  0.25345942  0.62074114  0.11711678    -0.00300
C779        C  0.23160277  0.63435770  0.10562581    -0.12000
C780        C  0.19233551  0.61590137  0.11119804     0.01900
H781        H  0.18181873  0.54275188  0.15219801     0.14900
H782        H  0.24549234  0.66021291  0.09286217     0.14900
C783        C  0.17221574  0.63284163  0.09995447     0.36500
C784        C  0.25509247  0.57040445  0.14570145     0.36400
N785        N  0.15625509  0.64658444  0.09093241    -0.43800
N786        N  0.27085020  0.55711168  0.15591872    -0.43800
C787        C  0.36888313  0.62166875  0.47505418    -0.00200
C788        C  0.39392227  0.63184012  0.45171206    -0.12100
C789        C  0.41033855  0.61081693  0.44503675     0.02000
C790        C  0.40156906  0.57897807  0.46190088    -0.00300
C791        C  0.37611255  0.56839240  0.48505251    -0.12000
C792        C  0.34628003  0.57976315  0.96890967     0.01900
H793        H  0.39984305  0.65566197  0.43819449     0.14900
H794        H  0.35001292  0.53104391  0.96024971     0.14900
C795        C  0.30492342  0.55622481  0.96713748     0.36500
C796        C  0.43454078  0.62126388  0.41996595     0.36400
N797        N  0.27181614  0.53693484  0.96573805    -0.43800
N798        N  0.45363424  0.62937058  0.39974038    -0.43800
C799        C  0.41864665  0.82501270  0.47033961    -0.00200
C800        C  0.43556775  0.80477985  0.46221720    -0.12100
C801        C  0.41261465  0.76330895  0.95948374     0.02000
C802        C  0.38083727  0.74570324  0.48073012    -0.00300
C803        C  0.36535066  0.76666554  0.49084718    -0.12000
C804        C  0.38388135  0.80600010  0.48588913     0.01900
H805        H  0.45661768  0.81656095  0.94119602     0.14900
H806        H  0.33785675  0.75200036  0.50172344     0.14900
C807        C  0.36500835  0.82517547  0.49519377     0.36500
C808        C  0.42813840  0.74308993  0.94580104     0.36400
N809        N  0.34972638  0.84038141  0.50266344    -0.43800
N810        N  0.44069133  0.72707514  0.93472334    -0.43800
C811        C  0.25391878  0.62726797  0.47330289    -0.00200
C812        C  0.22995263  0.63363087  0.98801970    -0.12100
C813        C  0.19450824  0.62535718  0.48138121     0.02000
C814        C  0.17490448  0.59412975  0.46206748    -0.00300
C815        C  0.19539325  0.58031199  0.44837259    -0.12000
C816        C  0.23450990  0.59672523  0.45345318     0.01900
H817        H  0.24393332  0.65339714  0.00583084     0.14900
H818        H  0.18088799  0.55701763  0.43303865     0.14900
C819        C  0.25438378  0.58349843  0.43628556     0.36500
C820        C  0.17034193  0.62596368  0.00381704     0.36400
N821        N  0.27032947  0.57315059  0.42231693    -0.43800
N822        N  0.15521464  0.63461084  0.02024062    -0.43800
C823        C  0.35094873  0.64362115  0.47996018     0.80200
N824        N  0.37303864  0.68230992  0.48138203    -0.78100
C825        C  0.35676589  0.70333810  0.48199548     0.82600
N826        N  0.31791784  0.68515749  0.48051690    -0.78100
C827        C  0.29559243  0.64640270  0.47853928     0.82700
N828        N  0.31232017  0.62578715  0.47837022    -0.79800
C829        C  0.34718821  0.65193660  0.61028610     0.80200
N830        N  0.36543384  0.69057690  0.61099849    -0.78100
C831        C  0.34545778  0.70792079  0.61244553     0.82600
N832        N  0.30661156  0.68627101  0.61383087    -0.78100
C833        C  0.28789835  0.64747918  0.61342532     0.82700
N834        N  0.30832598  0.63062380  0.61156044    -0.79800
C835        C  0.14079151  0.85794609  0.86002514     0.80200
N836        N  0.11845695  0.81917226  0.86095077    -0.78100
C837        C  0.13445726  0.79790735  0.86227184     0.82600
N838        N  0.17319256  0.81563927  0.86332498    -0.78100
C839        C  0.19580420  0.85437321  0.86242229     0.82700
N840        N  0.17955302  0.87536658  0.86104016    -0.79800
C841        C  0.13267763  0.85844937  0.73836208     0.80200
N842        N  0.11458377  0.81969200  0.73646972    -0.78100
C843        C  0.13514338  0.80286020  0.73455271     0.82600
N844        N  0.17403320  0.82498714  0.73369886    -0.78100
C845        C  0.19242624  0.86362509  0.73564458     0.82700
N846        N  0.17161884  0.87997944  0.73793788    -0.79800
C847        C  0.07021074  0.94384602  0.88410606     0.42400
N848        N  0.02515411  0.95426613  0.89076738     0.01300
C849        C  0.03709819  0.62282644  0.91648025    -0.06600
H850        H  0.09902348  0.58063024  0.98991564     0.06800
C851        C  0.46712096  0.96956942  0.51563765    -0.06900
Co852      Co  0.04651149  0.53280099  0.88919532     0.74200
N853        N  0.07126994  0.55807241  0.94948023    -0.26100
Co854      Co  0.01891806  0.55291834  0.95338035     0.74100
C855        C  0.49915626  0.99792148  0.53321689     0.42500
N856        N  0.44165590  0.91872553  0.94942260     0.00900
N857        N  0.00407051  0.51608819  0.98800087     0.01000
N858        N  0.05587589  0.60955828  0.87486299    -0.47000
H859        H  0.11633726  0.00859928  0.88576549     0.06800
N860        N  0.08203656  0.55064196  0.92502780     0.01300
N861        N  0.47066989  0.55045374  0.95397135     0.01000
C862        C  0.42601467  0.56120005  0.96069983     0.42600
N863        N  0.45257833  0.91166560  0.92479576    -0.25600
C864        C  0.01401985  0.53157267  0.82892561    -0.06500
N865        N  0.03174518  0.92676965  0.88589240    -0.46700
N866        N  0.46422104  0.57810595  0.95787144    -0.46900
C867        C  0.48248319  0.51007212  0.81003199     0.42400
N868        N  0.04376943  0.58132673  0.89354478     0.01300
N869        N  0.41562509  0.94430051  0.89372798    -0.25600
N870        N  0.05696536  0.98845812  0.89187820    -0.26100
N871        N  0.40470671  0.95135331  0.91835430     0.00900
H872        H  0.38707217  0.92260516  0.85293712     0.06800
H873        H  0.37946106  0.49651023  0.95975034     0.06800
N874        N  0.03317769  0.58869185  0.91815473    -0.26100
N875        N  0.47526414  0.98449016  0.99041368    -0.25700
N876        N  0.48421705  0.98698630  0.85626530     0.01300
C877        C  0.13130451  0.57277625  0.95252737     0.42700
C878        C  0.44877741  0.87752398  0.92641278    -0.07000
N879        N  0.43899645  0.51615192  0.95404885    -0.25700
H880        H  0.44181114  0.94269581  0.52187737     0.06800
N881        N  0.11775113  0.55920597  0.92585693    -0.47000
H882        H  0.45380915  0.86334052  0.90902391     0.06800
C883        C  0.35659615  0.93254398  0.89024303     0.42500
C884        C  0.08696779  0.98492402  0.88775975    -0.06500
Co885      Co  0.46802579  0.94856001  0.89002932     0.73800
N886        N  0.42950473  0.89043253  0.96801128    -0.46700
C887        C  0.05214882  0.63675763  0.88768142     0.42800
N888        N  0.46692238  0.98027420  0.83102402    -0.46700
Co889      Co  0.43925679  0.96724700  0.95478533     0.73900
C890        C  0.40905722  0.51989895  0.95812029    -0.07000
C891        C  0.10013900  0.57170299  0.96835761    -0.06600
N892        N  0.00975235  0.51427779  0.85410534    -0.26100
N893        N  0.02153993  0.52471355  0.51386749    -0.46900
H894        H  0.03265608  0.63711922  0.93407095     0.06800
C895        C  0.38711738  0.93230905  0.87455131    -0.07000
Cl896      Cl  0.49576367  0.50250292  0.91764554    -0.50000
C897        C  0.43344077  0.86349028  0.95511254     0.42500
H898        H  0.03830675  0.55924513  0.82279857     0.06800
N899        N  0.36942075  0.94410696  0.91732480    -0.46700
C900        C  0.12702929  0.56697884  0.64050337     0.42400
N901        N  0.07101835  0.55714867  0.64562648     0.01300
C902        C  0.45863720  0.98045751  0.76589903    -0.06600
H903        H  0.98896215  0.89036247  0.71607470     0.06800
C904        C  0.42157762  0.89864132  0.62450277    -0.06900
Co905      Co  0.03990240  0.53042256  0.70452665     0.74200
N906        N  0.00760796  0.94937911  0.71069084    -0.26100
Co907      Co  0.45819755  0.95205833  0.70417966     0.74100
C908        C  0.42271093  0.86862519  0.63992119     0.42500
N909        N  0.47583308  0.99545195  0.60621782     0.00900
N910        N  0.44226112  0.91701171  0.66789935     0.01000
N911        N  0.00829226  0.52830493  0.76404869    -0.47000
H912        H  0.12700660  0.54700801  0.68667063     0.06800
N913        N  0.04151748  0.98160672  0.71145733     0.01300
N914        N  0.40854985  0.95261855  0.69971082     0.01000
C915        C  0.35258789  0.94281709  0.70616407     0.42600
N916        N  0.00680147  0.52294789  0.60409017    -0.25600
C917        C  0.05724754  0.61210411  0.71958469    -0.06500
N918        N  0.09971478  0.56988536  0.62729309    -0.46700
N919        N  0.38048968  0.94010240  0.71867267    -0.46900
C920        C  0.05881048  0.64297675  0.70321167     0.42400
N921        N  0.00058323  0.51320721  0.73794337     0.01300
N922        N  0.47252206  0.56098539  0.63130739    -0.25600
N923        N  0.07797287  0.54659870  0.67034780    -0.26100
N924        N  0.43857341  0.52885957  0.63083705     0.00900
H925        H  0.49137662  0.61991043  0.62527090     0.06800
H926        H  0.35102072  0.96215681  0.66003237     0.06800
N927        N  0.47495025  0.98774671  0.73991218    -0.26100
N928        N  0.43415027  0.92728985  0.64355695    -0.25700
N929        N  0.03752253  0.59359187  0.67602136     0.01300
C930        C  0.05342672  0.93768351  0.71852824     0.42700
C931        C  0.02526312  0.52847532  0.57917509    -0.07000
N932        N  0.40060088  0.96278737  0.67522818    -0.25700
H933        H  0.41149255  0.89842625  0.60302568     0.06800
N934        N  0.06969236  0.97592454  0.71623259    -0.47000
H935        H  0.05267136  0.55357420  0.57355447     0.06800
C936        C  0.42689396  0.57262607  0.62306417     0.42500
C937        C  0.11269581  0.55142481  0.66911068    -0.06500
Co938      Co  0.02234331  0.55868653  0.63975776     0.73800
N939        N  0.46865446  0.97813736  0.58094757    -0.46700
C940        C  0.47927591  0.51092712  0.77884428     0.42800
N941        N  0.04645273  0.62943040  0.67639369    -0.46700
Co942      Co  0.43755148  0.97884566  0.64029293     0.73900
C943        C  0.36588590  0.95787368  0.67724886    -0.07000
C944        C  0.01208923  0.92005099  0.71485822    -0.06600
N945        N  0.04408971  0.58285882  0.70085667    -0.26100
N946        N  0.43542143  0.88194976  0.66676450    -0.45900
H947        H  0.43256016  0.95423285  0.77209845     0.06800
C948        C  0.46818726  0.59026025  0.62666612    -0.07000
Cl949      Cl  0.48790290  0.50607667  0.66845400    -0.50000
C950        C  0.49973824  0.00029166  0.56450929     0.42500
H951        H  0.06734015  0.61267958  0.74113039     0.06800
N952        N  0.41040411  0.53447670  0.62593994    -0.46700
C953        C  0.11566501  0.76175194  0.72765128    -0.00200
C954        C  0.12269145  0.75151351  0.70073102    -0.12100
C955        C  0.10431714  0.71314527  0.69232457     0.02000
C956        C  0.07880306  0.68395346  0.71137804    -0.00300
C957        C  0.07252464  0.69419611  0.73869545    -0.12000
C958        C  0.09027432  0.73285301  0.74676366     0.01900
H959        H  0.14232083  0.77372675  0.68601287     0.14900
H960        H  0.05318606  0.67201054  0.75351956     0.14900
C961        C  0.08253447  0.74223913  0.77477988     0.36500
C962        C  0.11327410  0.70473002  0.66435660     0.36400
N963        N  0.07627475  0.74983890  0.79719636    -0.43800
N964        N  0.12060760  0.69822488  0.64192239    -0.43800
C965        C  0.23432574  0.88761896  0.73118400    -0.00200
C966        C  0.25777169  0.87703484  0.74436394    -0.12100
C967        C  0.29693064  0.89597402  0.73794328     0.02000
C968        C  0.31306894  0.92566238  0.71733306    -0.00300
C969        C  0.28992562  0.93745368  0.70532091    -0.12000
C970        C  0.25098814  0.91897368  0.71210029     0.01900
H971        H  0.24523643  0.85331054  0.75931109     0.14900
H972        H  0.30202799  0.96064627  0.68993508     0.14900
C973        C  0.22855394  0.93129585  0.69755380     0.36500
C974        C  0.31906392  0.88291753  0.75191092     0.36400
N975        N  0.21080979  0.94135425  0.68580174    -0.43800
N976        N  0.33667473  0.87238546  0.76323197    -0.43800
C977        C  0.11112232  0.87806140  0.73638492    -0.00200
C978        C  0.13232296  0.91807339  0.73276665    -0.12100
C979        C  0.11449533  0.93802413  0.72693895     0.02000
C980        C  0.07406122  0.91819216  0.72534748    -0.00300
C981        C  0.05268085  0.87850517  0.73032646    -0.12000
C982        C  0.07057073  0.85837159  0.73567226     0.01900
H983        H  0.16338734  0.93416223  0.73352736     0.14900
H984        H  0.02165779  0.86268482  0.72977582     0.14900
C985        C  0.04617807  0.81758412  0.74001337     0.36500
C986        C  0.13901571  0.97862624  0.72179184     0.36400
N987        N  0.02641908  0.78489046  0.74337579    -0.43800
N988        N  0.15919221  0.01109076  0.71763961    -0.43800
C989        C  0.11011710  0.75617502  0.86639203    -0.00200
C990        C  0.11766446  0.73222589  0.85033489    -0.12100
C991        C  0.09747061  0.69275274  0.85540915     0.02000
C992        C  0.06983823  0.67681860  0.87766481    -0.00300
C993        C  0.06120407  0.70078622  0.89272389    -0.12000
C994        C  0.08104852  0.74005816  0.88740397     0.01900
H995        H  0.13969717  0.74451169  0.83391611     0.14900
H996        H  0.03960795  0.68914345  0.90942224     0.14900
C997        C  0.07293387  0.76344168  0.90536167     0.36500
C998        C  0.10667264  0.66990060  0.83788153     0.36400
N999        N  0.06655170  0.78217252  0.91983994    -0.43800
N1000       N  0.11409649  0.65177326  0.82362915    -0.43800
C1001       C  0.23688447  0.87359026  0.86894776    -0.00200
C1002       C  0.26413455  0.89534643  0.84782187    -0.12100
C1003       C  0.30349994  0.91473625  0.85405125     0.02000
C1004       C  0.31574286  0.91308684  0.88206114    -0.00300
C1005       C  0.28821099  0.89177128  0.90318276    -0.12000
C1006       C  0.24911585  0.87183707  0.89680809     0.01900
H1007       H  0.25463961  0.89705502  0.82647640     0.14900
H1008       H  0.29723564  0.89017810  0.92473070     0.14900
C1009       C  0.22203908  0.85042215  0.91942237     0.36500
C1010       C  0.33048356  0.93695627  0.83164638     0.36400
N1011       N  0.20039839  0.83326525  0.93755121    -0.43800
N1012       N  0.35195951  0.95467515  0.81357282    -0.43800
C1013       C  0.08969154  0.92358757  0.87652007    -0.00200
C1014       C  0.06859638  0.88841958  0.86186788    -0.12100
C1015       C  0.08497195  0.86726919  0.85493190     0.02000
C1016       C  0.12327503  0.88108446  0.86303377    -0.00300
C1017       C  0.14467565  0.91684665  0.87681359    -0.12000
C1018       C  0.12837466  0.93797849  0.88371233     0.01900
H1019       H  0.03909637  0.87733393  0.85571483     0.14900
H1020       H  0.17398984  0.92781556  0.88343463     0.14900
C1021       C  0.15179501  0.97312483  0.89960301     0.36500
C1022       C  0.06190027  0.83193221  0.83910302     0.36400
N1023       N  0.17111581  0.00125228  0.91228423    -0.43800
N1024       N  0.04334876  0.80367229  0.82637798    -0.43800
C1025       C  0.36904789  0.63278259  0.61108961    -0.00200
C1026       C  0.34875859  0.59275617  0.60773254    -0.12100
C1027       C  0.36689959  0.57255832  0.61078041     0.02000
C1028       C  0.40633106  0.59237532  0.61778383    -0.00300
C1029       C  0.42689991  0.63240792  0.62013306    -0.12000
C1030       C  0.40901582  0.65272737  0.61664510     0.01900
H1031       H  0.31833060  0.57685139  0.60285203     0.14900
H1032       H  0.45721729  0.64828869  0.62520161     0.14900
C1033       C  0.43292499  0.69387374  0.61943885     0.36500
C1034       C  0.34414040  0.53166089  0.60621260     0.36400
N1035       N  0.45253957  0.72681115  0.62156921    -0.43800
N1036       N  0.32573897  0.49892641  0.60237244    -0.43800
C1037       C  0.40519099  0.82817995  0.63111276    -0.00200
C1038       C  0.37561495  0.81219343  0.61046863    -0.12100
C1039       C  0.35599683  0.77313269  0.60357183     0.02000
C1040       C  0.36625345  0.74957029  0.61723955    -0.00300
C1041       C  0.39657701  0.76576514  0.63704572    -0.12000
C1042       C  0.41602318  0.80457103  0.64405625     0.01900
H1043       H  0.36699172  0.82987894  0.60021419     0.14900
H1044       H  0.40452975  0.74776455  0.64772646     0.14900
C1045       C  0.44725377  0.81915855  0.66434543     0.36500
C1046       C  0.32603535  0.75808314  0.58211486     0.36400
N1047       N  0.47228521  0.83029271  0.68055683    -0.43800
N1048       N  0.30209941  0.74601408  0.56485995    -0.43800
C1049       C  0.16704926  0.58550997  0.63059615    -0.00200
C1050       C  0.18926846  0.57186857  0.64116572    -0.12100
C1051       C  0.22843479  0.59080776  0.63517989     0.02000
C1052       C  0.24601998  0.62407912  0.61796176    -0.00300
C1053       C  0.22352116  0.63700137  0.60661563    -0.12000
C1054       C  0.18438426  0.61817839  0.61274928     0.01900
H1055       H  0.17621136  0.54686787  0.65488396     0.14900
H1056       H  0.23680424  0.66255523  0.59347444     0.14900
C1057       C  0.16369717  0.63478685  0.60199686     0.36500
C1058       C  0.25007015  0.57692908  0.64884664     0.36400
N1059       N  0.14730620  0.64833084  0.59347144    -0.43800
N1060       N  0.26727802  0.56579574  0.65997100    -0.43800
C1061       C  0.36684426  0.61978538  0.97427526    -0.00200
C1062       C  0.40701729  0.63977495  0.97638780    -0.12100
C1063       C  0.42682103  0.62147670  0.97231333     0.02000
C1064       C  0.40638362  0.58183334  0.96609339    -0.00300
C1065       C  0.36620315  0.56145895  0.96484174    -0.12000
C1066       C  0.35987730  0.58969428  0.49185759     0.01900
H1067       H  0.42347708  0.67022914  0.98094474     0.14900
H1068       H  0.36974807  0.54414550  0.49824656     0.14900
C1069       C  0.33546614  0.57934203  0.51677127     0.36500
C1070       C  0.46812941  0.64463454  0.97473314     0.36400
N1071       N  0.31610454  0.57130764  0.53683516    -0.43800
N1072       N  0.50120430  0.66348852  0.97670506    -0.43800
C1073       C  0.41621655  0.82371985  0.96521425    -0.00200
C1074       C  0.43109410  0.80258455  0.95448028    -0.12100
C1075       C  0.41724061  0.76557670  0.46721599     0.02000
C1076       C  0.37827831  0.74434162  0.97564975    -0.00300
C1077       C  0.36466114  0.76591877  0.98782682    -0.12000
C1078       C  0.38328709  0.80527675  0.98290389     0.01900
H1079       H  0.46264283  0.81940953  0.45075745     0.14900
H1080       H  0.33855446  0.75171192  0.00047481     0.14900
C1081       C  0.36624634  0.82509872  0.99469294     0.36500
C1082       C  0.43567280  0.74670640  0.45622700     0.36400
N1083       N  0.35238719  0.84078805  0.00415429    -0.43800
N1084       N  0.45102757  0.73224913  0.44726332    -0.43800
C1085       C  0.25177676  0.62604532  0.96950032    -0.00200
C1086       C  0.23358956  0.64131967  0.48697705    -0.12100
C1087       C  0.19039022  0.61599783  0.98389091     0.02000
C1088       C  0.17222644  0.59048747  0.96039021    -0.00300
C1089       C  0.19456063  0.58313682  0.94199647    -0.12000
C1090       C  0.23385788  0.60055680  0.94628970     0.01900
H1091       H  0.24849532  0.66539052  0.50168632     0.14900
H1092       H  0.18146674  0.56418392  0.92366931     0.14900
C1093       C  0.25536888  0.59337553  0.92555873     0.36500
C1094       C  0.17647355  0.64364513  0.49414212     0.36400
N1095       N  0.27247375  0.58760647  0.90885655    -0.43800
N1096       N  0.16251259  0.65885337  0.50431432    -0.43800
C1097       C  0.85233275  0.14328343  0.98859450     0.80200
N1098       N  0.87324365  0.18209950  0.98819211    -0.78100
C1099       C  0.85576434  0.20198209  0.98775657     0.82600
N1100       N  0.81679683  0.18233444  0.98707779    -0.78100
C1101       C  0.79546705  0.14345312  0.98699480     0.82700
N1102       N  0.81350011  0.12408519  0.98779019    -0.79800
C1103       C  0.85465946  0.14901721  0.10850791     0.80200
N1104       N  0.87375483  0.18773916  0.10803668    -0.78100
C1105       C  0.85456033  0.20592489  0.10884005     0.82600
N1106       N  0.81578086  0.18508315  0.11106660    -0.78100
C1107       C  0.79625599  0.14633365  0.11195093     0.82700
N1108       N  0.81583250  0.12858809  0.11055298    -0.79800
C1109       C  0.63723301  0.35483341  0.35545462     0.80200
N1110       N  0.61735876  0.31613967  0.35608404    -0.78100
C1111       C  0.63582989  0.29721932  0.35660566     0.82600
N1112       N  0.67478382  0.31738421  0.35641789    -0.78100
C1113       C  0.69515964  0.35623315  0.35566990     0.82700
N1114       N  0.67618546  0.37470388  0.35565769    -0.79800
C1115       C  0.64012877  0.36030670  0.24021291     0.80200
N1116       N  0.62257754  0.32157717  0.23851652    -0.78100
C1117       C  0.64375227  0.30530244  0.23751372     0.82600
N1118       N  0.68257781  0.32790260  0.23736529    -0.78100
C1119       C  0.70031838  0.36640864  0.23910793     0.82700
N1120       N  0.67905569  0.38231795  0.24040387    -0.79800
C1121       C  0.56069146  0.43512049  0.37991716     0.42400
N1122       N  0.51604012  0.44660112  0.38424092     0.01300
C1123       C  0.54504989  0.12574090  0.41731181    -0.06600
H1124       H  0.60283055  0.08565001  0.49595191     0.06800
C1125       C  0.96673067  0.46624625  0.01361999    -0.06900
Co1126     Co  0.55544547  0.03511511  0.39423844     0.74200
N1127       N  0.57632767  0.06116523  0.45499243    -0.26100
Co1128     Co  0.52344032  0.05605470  0.45563218     0.74100
C1129       C  0.99988604  0.49449387  0.03044493     0.42500
N1130       N  0.93889437  0.41747635  0.44652099     0.00900
N1131       N  0.50589866  0.01945304  0.49052085     0.01000
N1132       N  0.56674036  0.11157023  0.37759916    -0.47000
H1133       H  0.60761011  0.49958226  0.38160094     0.06800
N1134       N  0.58840348  0.05261118  0.43164706     0.01300
N1135       N  0.96733066  0.04555698  0.46152860     0.01000
C1136       C  0.92296349  0.05696578  0.46635997     0.42600
N1137       N  0.95031607  0.41044811  0.42216367    -0.25600
C1138       C  0.52643475  0.03486102  0.33289304    -0.06500
N1139       N  0.52222582  0.41857468  0.38062660    -0.46700
N1140       N  0.96123786  0.07356253  0.46486207    -0.46900
C1141       C  0.98876453  0.00690398  0.31664441     0.42400
N1142       N  0.55322346  0.08381564  0.39677800     0.01300
N1143       N  0.91363971  0.44279555  0.39055167    -0.25600
N1144       N  0.54812949  0.48063099  0.38545580    -0.26100
N1145       N  0.90237129  0.45032221  0.41480663     0.00900
H1146       H  0.88670596  0.42246020  0.34912515     0.06800
H1147       H  0.87557220  0.99281032  0.46458932     0.06800
N1148       N  0.54078441  0.09158941  0.42023281    -0.26100
N1149       N  0.97277982  0.48317038  0.48709107    -0.25700
N1150       N  0.98215629  0.48535234  0.35354761     0.01300
C1151       C  0.63554634  0.07459843  0.46110516     0.42700
C1152       C  0.94642520  0.37627925  0.42396321    -0.07000
N1153       N  0.93534880  0.01146796  0.46077675    -0.25700
H1154       H  0.94167842  0.43950954  0.02040605     0.06800
N1155       N  0.62373750  0.06029464  0.43436021    -0.47000
H1156       H  0.95180031  0.36217190  0.40671883     0.06800
C1157       C  0.85543004  0.43263353  0.38566259     0.42500
C1158       C  0.57789533  0.47637926  0.38276898    -0.06500
Co1159     Co  0.96616234  0.44736632  0.38749725     0.73800
N1160       N  0.92653007  0.38926457  0.46520746    -0.46700
C1161       C  0.56227486  0.13896106  0.38895588     0.42800
N1162       N  0.96537572  0.47782655  0.32807560    -0.46700
Co1163     Co  0.93672885  0.46611834  0.45151641     0.73900
C1164       C  0.90549554  0.01567299  0.46400009    -0.07000
C1165       C  0.60414170  0.07522227  0.47491886    -0.06600
N1166       N  0.52085602  0.01700889  0.35798179    -0.26100
N1167       N  0.52425862  0.02651717  0.01679614    -0.46900
H1168       H  0.53913299  0.14034509  0.43380809     0.06800
C1169       C  0.88587924  0.43132070  0.37086177    -0.07000
Cl1170     Cl  0.99420127  0.99831951  0.42590985    -0.50000
C1171       C  0.93059864  0.36224912  0.45259590     0.42500
H1172       H  0.55104215  0.06261010  0.32732401     0.06800
N1173       N  0.86753314  0.44425984  0.41291232    -0.46700
C1174       C  0.63637883  0.07034136  0.14215909     0.42400
N1175       N  0.58028257  0.06033721  0.14790926     0.01300
C1176       C  0.96007256  0.47530299  0.26308698    -0.06600
H1177       H  0.49557072  0.38766772  0.20774512     0.06800
C1178       C  0.92657552  0.39547246  0.12148475    -0.06900
Co1179     Co  0.55102067  0.03383111  0.20733200     0.74200
N1180       N  0.51343747  0.44654807  0.20224352    -0.26100
Co1181     Co  0.96161123  0.44608134  0.20207090     0.74100
C1182       C  0.92878976  0.36565039  0.13608813     0.42500
N1183       N  0.97944894  0.49134762  0.10419015     0.00900
N1184       N  0.94612575  0.41225769  0.16528193     0.01000
N1185       N  0.52131573  0.03260049  0.26763205    -0.47000
H1186       H  0.63702223  0.05016412  0.18810214     0.06800
N1187       N  0.54694362  0.47911465  0.20432723     0.01300
N1188       N  0.91258807  0.44769725  0.19766431     0.01000
C1189       C  0.85790501  0.44061962  0.20503494     0.42600
N1190       N  0.51395635  0.02557062  0.10753181    -0.25600
C1191       C  0.56846532  0.11512753  0.22281943    -0.06500
N1192       N  0.60882239  0.07332947  0.12933306    -0.46700
N1193       N  0.88511895  0.43636385  0.21698858    -0.46900
C1194       C  0.56921855  0.14582970  0.20697589     0.42400
N1195       N  0.51301854  0.01727491  0.24159126     0.01300
N1196       N  0.97918254  0.05989326  0.14075659    -0.25600
N1197       N  0.58773215  0.04964924  0.17239019    -0.26100
N1198       N  0.94545708  0.02754214  0.13954959     0.00900
H1199       H  0.99735803  0.11874411  0.13540712     0.06800
H1200       H  0.85674642  0.46063749  0.15899278     0.06800
N1201       N  0.97786432  0.48136610  0.23784000    -0.26100
N1202       N  0.93799001  0.42314777  0.14121499    -0.25700
N1203       N  0.54774589  0.09693817  0.17937271     0.01300
C1204       C  0.55944777  0.43581162  0.21232003     0.42700
C1205       C  0.53099283  0.03084170  0.08198259    -0.07000
N1206       N  0.90500769  0.45877832  0.17348127    -0.25700
H1207       H  0.91721731  0.39596813  0.09988782     0.06800
N1208       N  0.57513428  0.47398041  0.21052162    -0.47000
H1209       H  0.55802074  0.05592764  0.07566431     0.06800
C1210       C  0.93311887  0.07083572  0.13205283     0.42500
C1211       C  0.62243240  0.05455039  0.17073242    -0.06500
Co1212     Co  0.53115006  0.06188641  0.14306948     0.73800
N1213       N  0.97138237  0.47455019  0.07868419    -0.46700
C1214       C  0.98717975  0.00678210  0.28523592     0.42800
N1215       N  0.55654828  0.13273327  0.18012297    -0.46700
Co1216     Co  0.94157500  0.47488695  0.13842740     0.73900
C1217       C  0.87101457  0.45528987  0.17598056    -0.07000
C1218       C  0.51834135  0.41752971  0.20687616    -0.06600
N1219       N  0.55506293  0.08613569  0.20390113    -0.26100
N1220       N  0.94062854  0.37779649  0.16324944    -0.45900
H1221       H  0.93304046  0.44989916  0.26894057     0.06800
C1222       C  0.97440563  0.08896686  0.13646989    -0.07000
Cl1223     Cl  0.99519049  0.00368112  0.17526657    -0.50000
C1224       C  0.00196533  0.49669179  0.06183220     0.42500
H1225       H  0.57897527  0.11556263  0.24418416     0.06800
N1226       N  0.91714951  0.03273727  0.13417841    -0.46700
C1227       C  0.62525529  0.26417844  0.23111343    -0.00200
C1228       C  0.63749962  0.25351843  0.20676920    -0.12100
C1229       C  0.61987262  0.21507924  0.19877293     0.02000
C1230       C  0.58943741  0.18650254  0.21539332    -0.00300
C1231       C  0.57825631  0.19696743  0.24043539    -0.12000
C1232       C  0.59580775  0.23559669  0.24831180     0.01900
H1233       H  0.66062451  0.27538180  0.19372328     0.14900
H1234       H  0.55547392  0.17498519  0.25361954     0.14900
C1235       C  0.58430954  0.24518660  0.27462008     0.36500
C1236       C  0.63454668  0.20563552  0.17410092     0.36400
N1237       N  0.57535188  0.25291231  0.29583348    -0.43800
N1238       N  0.64654810  0.19811647  0.15447555    -0.43800
C1239       C  0.74172549  0.39050308  0.23361076    -0.00200
C1240       C  0.76672868  0.38452390  0.24957559    -0.12100
C1241       C  0.80535909  0.40221688  0.24186518     0.02000
C1242       C  0.81926937  0.42596957  0.21726560    -0.00300
C1243       C  0.79449888  0.43366341  0.20251804    -0.12000
C1244       C  0.75603664  0.41608195  0.21029276     0.01900
H1245       H  0.75569947  0.36500179  0.26758370     0.14900
H1246       H  0.80461890  0.45230871  0.18406320     0.14900
C1247       C  0.73125303  0.42217819  0.19233502     0.36500
C1248       C  0.82913804  0.39389954  0.25899283     0.36400
N1249       N  0.71139250  0.42687101  0.17782430    -0.43800
N1250       N  0.84791421  0.38702257  0.27288514    -0.43800
C1251       C  0.61826109  0.37934019  0.23651440    -0.00200
C1252       C  0.63905984  0.41846470  0.22942554    -0.12100
C1253       C  0.62074490  0.43730879  0.22168265     0.02000
C1254       C  0.58027469  0.41728752  0.22129437    -0.00300
C1255       C  0.55929938  0.37867046  0.22974473    -0.12000
C1256       C  0.57773255  0.35964976  0.23735619     0.01900
H1257       H  0.67013648  0.43454594  0.22878524     0.14900
H1258       H  0.52826297  0.36298352  0.23035534     0.14900
C1259       C  0.55406692  0.32009542  0.24590312     0.36500
C1260       C  0.64478366  0.47683423  0.21314841     0.36400
N1261       N  0.53486493  0.28837668  0.25267570    -0.43800
N1262       N  0.66462564  0.50846468  0.20637745    -0.43800
C1263       C  0.61408892  0.25569825  0.36220378    -0.00200
C1264       C  0.62631339  0.23310445  0.34971553    -0.12100
C1265       C  0.60890736  0.19443136  0.35696395     0.02000
C1266       C  0.57887132  0.17797215  0.37739134    -0.00300
C1267       C  0.56597998  0.20038337  0.38900841    -0.12000
C1268       C  0.58316078  0.23876995  0.38178508     0.01900
H1269       H  0.65004749  0.24592488  0.33468044     0.14900
H1270       H  0.54306437  0.18831320  0.40464427     0.14900
C1271       C  0.57012592  0.26047271  0.39666016     0.36500
C1272       C  0.62389508  0.17323755  0.34416951     0.36400
N1273       N  0.55964806  0.27771639  0.40871671    -0.43800
N1274       N  0.63602489  0.15635803  0.33390851    -0.43800
C1275       C  0.73722340  0.37823173  0.36008830    -0.00200
C1276       C  0.75357753  0.40991999  0.37879010    -0.12100
C1277       C  0.79224308  0.42878710  0.38675824     0.02000
C1278       C  0.81554983  0.41631574  0.37560352    -0.00300
C1279       C  0.79976264  0.38611358  0.35553704    -0.12000
C1280       C  0.76090710  0.36684733  0.34793014     0.01900
H1281       H  0.73574341  0.41910795  0.38817439     0.14900
H1282       H  0.81734974  0.37640882  0.34656601     0.14900
C1283       C  0.74610596  0.33549214  0.32768702     0.36500
C1284       C  0.80712640  0.46087211  0.40634253     0.36400
N1285       N  0.73424404  0.31032718  0.31149714    -0.43800
N1286       N  0.81884002  0.48659210  0.42199236    -0.43800
C1287       C  0.58035247  0.41458530  0.37384547    -0.00200
C1288       C  0.56076345  0.37994033  0.35840495    -0.12100
C1289       C  0.57861680  0.36007552  0.35156698     0.02000
C1290       C  0.61711352  0.37520585  0.35996955    -0.00300
C1291       C  0.63639637  0.40963340  0.37550168    -0.12000
C1292       C  0.61835642  0.42887818  0.38286760     0.01900
H1293       H  0.53146504  0.36841711  0.35145679     0.14900
H1294       H  0.66539505  0.42092198  0.38312918     0.14900
C1295       C  0.63901463  0.46145984  0.40163628     0.36500
C1296       C  0.55678826  0.32462356  0.33570766     0.36400
N1297       N  0.65631155  0.48712031  0.41705080    -0.43800
N1298       N  0.53899704  0.29609607  0.32317217    -0.43800
C1299       C  0.87566630  0.12911150  0.11090745    -0.00200
C1300       C  0.85424386  0.08938170  0.11563818    -0.12100
C1301       C  0.87201166  0.06963133  0.12220570     0.02000
C1302       C  0.91246215  0.08960253  0.12381888    -0.00300
C1303       C  0.93396934  0.12879308  0.11738279    -0.12000
C1304       C  0.91623651  0.14862873  0.11092309     0.01900
H1305       H  0.82317166  0.07348463  0.11508210     0.14900
H1306       H  0.96499809  0.14447865  0.11757809     0.14900
C1307       C  0.94095763  0.18893678  0.10472187     0.36500
C1308       C  0.84746518  0.02916710  0.12787810     0.36400
N1309       N  0.96111809  0.22120312  0.09981124    -0.43800
N1310       N  0.82719116  0.99678029  0.13228158    -0.43800
C1311       C  0.91309901  0.32611228  0.12615581    -0.00200
C1312       C  0.88128738  0.30896641  0.10758997    -0.12100
C1313       C  0.86253055  0.27007031  0.10062643     0.02000
C1314       C  0.87600141  0.24788140  0.11207920    -0.00300
C1315       C  0.90928127  0.26566931  0.12912233    -0.12000
C1316       C  0.92772548  0.30437459  0.13634799     0.01900
H1317       H  0.87001256  0.32550468  0.09941100     0.14900
H1318       H  0.92004526  0.24894774  0.13789696     0.14900
C1319       C  0.96158422  0.32098035  0.15422476     0.36500
C1320       C  0.82960973  0.25368582  0.08175662     0.36400
N1321       N  0.98877621  0.33418640  0.16846495    -0.43800
N1322       N  0.80323307  0.24051824  0.06663949    -0.43800
C1323       C  0.67615821  0.08793983  0.13172841    -0.00200
C1324       C  0.69821206  0.07424130  0.14263585    -0.12100
C1325       C  0.73713881  0.09219426  0.13606356     0.02000
C1326       C  0.75458977  0.12419584  0.11756999    -0.00300
C1327       C  0.73232776  0.13731813  0.10605893    -0.12000
C1328       C  0.69353141  0.11977434  0.11307123     0.01900
H1329       H  0.68528392  0.05003211  0.15712646     0.14900
H1330       H  0.74558321  0.16211486  0.09212733     0.14900
C1331       C  0.67337399  0.13696729  0.10241298     0.36500
C1332       C  0.75881685  0.07897125  0.15059888     0.36400
N1333       N  0.65752139  0.15112025  0.09399375    -0.43800
N1334       N  0.77603287  0.06845041  0.16255220    -0.43800
C1335       C  0.87123751  0.12156946  0.48254541    -0.00200
C1336       C  0.90171888  0.13489071  0.46315319    -0.12100
C1337       C  0.91794515  0.11360834  0.45694801     0.02000
C1338       C  0.90421086  0.07838334  0.47078910    -0.00300
C1339       C  0.87354825  0.06463183  0.49012003    -0.12000
C1340       C  0.86167932  0.08907790  0.99942763     0.01900
H1341       H  0.91201357  0.16139604  0.45186173     0.14900
H1342       H  0.87214278  0.04372685  0.00463973     0.14900
C1343       C  0.83458762  0.07568946  0.02283827     0.36500
C1344       C  0.94683577  0.12744166  0.43479446     0.36400
N1345       N  0.81301242  0.06509047  0.04168498    -0.43800
N1346       N  0.96947194  0.13849784  0.41667953    -0.43800
C1347       C  0.91455618  0.32292951  0.46350983    -0.00200
C1348       C  0.92791095  0.30111115  0.45144994    -0.12100
C1349       C  0.91579059  0.26489746  0.97210043     0.02000
C1350       C  0.87958176  0.24459578  0.47733942    -0.00300
C1351       C  0.86741527  0.26686689  0.49052544    -0.12000
C1352       C  0.88440708  0.30561789  0.48379985     0.01900
H1353       H  0.96013428  0.31813086  0.95358927     0.14900
H1354       H  0.84363881  0.25360145  0.50552423     0.14900
C1355       C  0.86843356  0.32583175  0.49672445     0.36500
C1356       C  0.93818153  0.24800935  0.96735880     0.36400
N1357       N  0.85531730  0.34176080  0.50705135    -0.43800
N1358       N  0.95675763  0.23513945  0.96367119    -0.43800
C1359       C  0.75423073  0.12432415  0.48283731    -0.00200
C1360       C  0.73390019  0.14012485  0.99210556    -0.12100
C1361       C  0.69630797  0.12644943  0.48594692     0.02000
C1362       C  0.67527270  0.09104376  0.47127335    -0.00300
C1363       C  0.69365117  0.07213542  0.46341890    -0.12000
C1364       C  0.73263581  0.08824569  0.46891351     0.01900
H1365       H  0.74916000  0.16627051  0.00473089     0.14900
H1366       H  0.67759645  0.04499417  0.45209585     0.14900
C1367       C  0.74983161  0.06811872  0.45798664     0.36500
C1368       C  0.67833547  0.14599265  0.99387749     0.36400
N1369       N  0.76349910  0.05195871  0.44910175    -0.43800
N1370       N  0.66508314  0.16334173  0.00082374    -0.43800
C1371       C  0.85305326  0.14390808  0.48578466     0.80200
N1372       N  0.87431717  0.18262121  0.48303615    -0.78100
C1373       C  0.85703429  0.20275512  0.48228345     0.82600
N1374       N  0.81815242  0.18376471  0.48362707    -0.78100
C1375       C  0.79657462  0.14502513  0.48575264     0.82700
N1376       N  0.81432654  0.12544000  0.48695701    -0.79800
C1377       C  0.84908051  0.14817767  0.60279118     0.80200
N1378       N  0.86797198  0.18702698  0.60279281    -0.78100
C1379       C  0.84840482  0.20497690  0.60334206     0.82600
N1380       N  0.80951922  0.18365475  0.60480608    -0.78100
C1381       C  0.79021871  0.14492966  0.60526148     0.82700
N1382       N  0.81011584  0.12743865  0.60430317    -0.79800
C1383       C  0.63739763  0.35794785  0.85238709     0.80200
N1384       N  0.61562841  0.31925755  0.85499400    -0.78100
C1385       C  0.63223026  0.29865290  0.85752910     0.82600
N1386       N  0.67098627  0.31697698  0.85816595    -0.78100
C1387       C  0.69310805  0.35555356  0.85574632     0.82700
N1388       N  0.67628485  0.37592798  0.85316592    -0.79800
C1389       C  0.63018180  0.36373357  0.73826884     0.80200
N1390       N  0.61131870  0.32484420  0.73750113    -0.78100
C1391       C  0.63110828  0.30730973  0.73498479     0.82600
N1392       N  0.66978817  0.32873015  0.73236803    -0.78100
C1393       C  0.68895660  0.36741142  0.73298174     0.82700
N1394       N  0.66905740  0.38466960  0.73584763    -0.79800
C1395       C  0.56660101  0.44526131  0.87157654     0.42400
N1396       N  0.52112701  0.45459322  0.88072975     0.01300
C1397       C  0.54230106  0.12729391  0.92026341    -0.06600
H1398       H  0.60344626  0.08407154  0.99494078     0.06800
C1399       C  0.96678003  0.46613584  0.51260460    -0.06900
Co1400     Co  0.55242973  0.03748537  0.89329213     0.74200
N1401       N  0.57588532  0.06154200  0.95403874    -0.26100
Co1402     Co  0.52324852  0.05649631  0.95730803     0.74100
C1403       C  0.99917851  0.49369524  0.53025792     0.42500
N1404       N  0.93727134  0.41530090  0.94814664     0.00900
N1405       N  0.50744711  0.01846622  0.99131147     0.01000
N1406       N  0.56171972  0.11369362  0.87910655    -0.47000
H1407       H  0.61146062  0.51054069  0.87197525     0.06800
N1408       N  0.58715660  0.05397112  0.92981870     0.01300
N1409       N  0.97100831  0.05109371  0.95888705     0.01000
C1410       C  0.92628220  0.06172977  0.96475209     0.42600
N1411       N  0.94810163  0.40717064  0.92391929    -0.25600
C1412       C  0.52202567  0.03859033  0.83243687    -0.06500
N1413       N  0.52822961  0.42756481  0.87523273    -0.46700
N1414       N  0.96461853  0.07886367  0.96267504    -0.46900
C1415       C  0.99166384  0.01053723  0.81702907     0.42400
N1416       N  0.55001367  0.08597574  0.89810965     0.01300
N1417       N  0.91052816  0.43847632  0.89175835    -0.25600
N1418       N  0.55251436  0.48916792  0.88070128    -0.26100
N1419       N  0.89988137  0.44668053  0.91601967     0.00900
H1420       H  0.88236392  0.41627916  0.85100213     0.06800
H1421       H  0.87939239  0.99750502  0.96369658     0.06800
N1422       N  0.53875197  0.09327192  0.92243732    -0.26100
N1423       N  0.97173339  0.48222504  0.98771480    -0.25700
N1424       N  0.97792312  0.48002712  0.85336514     0.01300
C1425       C  0.63539278  0.07515822  0.95819959     0.42700
C1426       C  0.94445001  0.37311374  0.92680485    -0.07000
N1427       N  0.93911909  0.01684321  0.95844916    -0.25700
H1428       H  0.94131709  0.43929111  0.51868826     0.06800
N1429       N  0.62271695  0.06184408  0.93132779    -0.47000
H1430       H  0.94943152  0.35800423  0.91012975     0.06800
C1431       C  0.85217706  0.42807785  0.88749387     0.42500
C1432       C  0.58264052  0.48633267  0.87495791    -0.06500
Co1433     Co  0.96288597  0.44289708  0.88815913     0.73800
N1434       N  0.92542884  0.38806424  0.96760654    -0.46700
C1435       C  0.55751700  0.14080579  0.89134602     0.42800
N1436       N  0.95999218  0.47238784  0.82828213    -0.46700
Co1437     Co  0.93498275  0.46390969  0.95231704     0.73900
C1438       C  0.90914811  0.02061866  0.96224897    -0.07000
C1439       C  0.60427306  0.07477023  0.97336625    -0.06600
N1440       N  0.51665575  0.02069597  0.85752928    -0.26100
N1441       N  0.52177759  0.02824676  0.51635058    -0.46900
H1442       H  0.53685247  0.14150929  0.93737095     0.06800
C1443       C  0.88225285  0.42639836  0.87242596    -0.07000
Cl1444     Cl  0.99815195  0.00272608  0.92519598    -0.50000
C1445       C  0.92938033  0.36060508  0.95582949     0.42500
H1446       H  0.54696266  0.06599294  0.82664217     0.06800
N1447       N  0.86493611  0.44031683  0.91452808    -0.46700
C1448       C  0.63230511  0.07444724  0.64088208     0.42400
N1449       N  0.57606757  0.06437381  0.64716300     0.01300
C1450       C  0.95067103  0.47252333  0.76247524    -0.06600
H1451       H  0.48655585  0.39291667  0.71215918     0.06800
C1452       C  0.91820624  0.39432893  0.61939055    -0.06900
Co1453     Co  0.54665669  0.03785457  0.70672575     0.74200
N1454       N  0.50419549  0.45139623  0.70521968    -0.26100
Co1455     Co  0.95154434  0.44527814  0.70024698     0.74100
C1456       C  0.91968800  0.36423063  0.63421364     0.42500
N1457       N  0.97310342  0.49053772  0.60251294     0.00900
N1458       N  0.93682399  0.41103010  0.66339945     0.01000
N1459       N  0.51652949  0.03600775  0.76698656    -0.47000
H1460       H  0.63353590  0.05537995  0.68722913     0.06800
N1461       N  0.53767266  0.48405950  0.70659622     0.01300
N1462       N  0.90269436  0.44723674  0.69450712     0.01000
C1463       C  0.84766765  0.43991755  0.70049019     0.42600
N1464       N  0.50944905  0.02807492  0.60709626    -0.25600
C1465       C  0.56041857  0.11818867  0.72222138    -0.06500
N1466       N  0.60423643  0.07683515  0.62823718    -0.46700
N1467       N  0.87459121  0.43586410  0.71324676    -0.46900
C1468       C  0.55879027  0.14754304  0.70609749     0.42400
N1469       N  0.50840730  0.02053844  0.74097648     0.01300
N1470       N  0.97563406  0.06084878  0.63828906    -0.25600
N1471       N  0.58398916  0.05444514  0.67176959    -0.26100
N1472       N  0.94185232  0.02853321  0.63779653     0.00900
H1473       H  0.99378606  0.11945410  0.63049985     0.06800
H1474       H  0.84781640  0.46038731  0.65441844     0.06800
N1475       N  0.96725134  0.48030529  0.73651449    -0.26100
N1476       N  0.92947751  0.42207770  0.63906235    -0.25700
N1477       N  0.54121453  0.09914082  0.67866328     0.01300
C1478       C  0.55049673  0.44132724  0.71582270     0.42700
C1479       C  0.52676948  0.03356992  0.58166187    -0.07000
N1480       N  0.89579775  0.45823159  0.66994193    -0.25700
H1481       H  0.90940260  0.39493914  0.59762600     0.06800
N1482       N  0.56611394  0.47936422  0.71299417    -0.47000
H1483       H  0.55371854  0.05882505  0.57543658     0.06800
C1484       C  0.92950146  0.07155132  0.62811895     0.42500
C1485       C  0.61885089  0.05963540  0.66988934    -0.06500
Co1486     Co  0.52601470  0.06430237  0.64251006     0.73800
N1487       N  0.96696555  0.47340229  0.57726236    -0.46700
C1488       C  0.98778718  0.01113247  0.78583726     0.42800
N1489       N  0.54685605  0.13368386  0.67933438    -0.46700
Co1490     Co  0.93361947  0.47407250  0.63562711     0.73900
C1491       C  0.86170891  0.45485260  0.67166712    -0.07000
C1492       C  0.50928587  0.42272180  0.71068625    -0.06600
N1493       N  0.54920295  0.08938504  0.70333784    -0.26100
N1494       N  0.93100505  0.37633250  0.66152635    -0.45900
H1495       H  0.92468398  0.44608406  0.76846524     0.06800
C1496       C  0.97088044  0.08976014  0.63252055    -0.07000
Cl1497     Cl  0.99164614  0.00523528  0.67510251    -0.50000
C1498       C  0.99886587  0.49543804  0.56155582     0.42500
H1499       H  0.57040554  0.11925102  0.74388740     0.06800
N1500       N  0.91359248  0.03358702  0.63164156    -0.46700
C1501       C  0.61097922  0.26616525  0.72851042    -0.00200
C1502       C  0.61730209  0.25569585  0.70147350    -0.12100
C1503       C  0.60032978  0.21734867  0.69381123     0.02000
C1504       C  0.57687142  0.18838113  0.71371694    -0.00300
C1505       C  0.57075503  0.19881906  0.74101852    -0.12000
C1506       C  0.58718004  0.23755004  0.74837014     0.01900
H1507       H  0.63570367  0.27775103  0.68619122     0.14900
H1508       H  0.55275507  0.17675693  0.75638993     0.14900
C1509       C  0.57986650  0.24733853  0.77636901     0.36500
C1510       C  0.60884020  0.20882907  0.66570423     0.36400
N1511       N  0.57385195  0.25526162  0.79874293    -0.43800
N1512       N  0.61565376  0.20206755  0.64317013    -0.43800
C1513       C  0.73058026  0.38992195  0.72729125    -0.00200
C1514       C  0.75315638  0.37788222  0.73984152    -0.12100
C1515       C  0.79171090  0.39473497  0.73243166     0.02000
C1516       C  0.80838030  0.42420024  0.71166985    -0.00300
C1517       C  0.78610815  0.43725299  0.69993056    -0.12000
C1518       C  0.74753634  0.42050732  0.70754078     0.01900
H1519       H  0.74028869  0.35445409  0.75505687     0.14900
H1520       H  0.79856566  0.46004423  0.68421327     0.14900
C1521       C  0.72559365  0.43357836  0.69322660     0.36500
C1522       C  0.81245629  0.37947297  0.74544055     0.36400
N1523       N  0.70815467  0.44411829  0.68163855    -0.43800
N1524       N  0.82890975  0.36707922  0.75591391    -0.43800
C1525       C  0.60899368  0.38368972  0.73687057    -0.00200
C1526       C  0.63008507  0.42318850  0.73103949    -0.12100
C1527       C  0.61198350  0.44269500  0.72462047     0.02000
C1528       C  0.57150526  0.42288766  0.72443500    -0.00300
C1529       C  0.55040312  0.38410110  0.73231659    -0.12000
C1530       C  0.56852506  0.36443638  0.73850728     0.01900
H1531       H  0.66114280  0.43901389  0.73026904     0.14900
H1532       H  0.51940541  0.36861195  0.73334154     0.14900
C1533       C  0.54443846  0.32454405  0.74611319     0.36500
C1534       C  0.63620648  0.48261947  0.71720186     0.36400
N1535       N  0.52488240  0.29256770  0.75212400    -0.43800
N1536       N  0.65632610  0.51457120  0.71136623    -0.43800
C1537       C  0.60889392  0.25730083  0.86351268    -0.00200
C1538       C  0.61740182  0.23306386  0.84896340    -0.12100
C1539       C  0.59928548  0.19440648  0.85628775     0.02000
C1540       C  0.57321688  0.17977138  0.87962433    -0.00300
C1541       C  0.56364389  0.20386078  0.89330405    -0.12000
C1542       C  0.58076770  0.24213336  0.88524753     0.01900
H1543       H  0.63858989  0.24453579  0.83191967     0.14900
H1544       H  0.54328561  0.19314244  0.91082609     0.14900
C1545       C  0.57048689  0.26561657  0.90080759     0.36500
C1546       C  0.60892724  0.17111707  0.83975234     0.36400
N1547       N  0.56207487  0.28433400  0.91321315    -0.43800
N1548       N  0.61660102  0.15260375  0.82623770    -0.43800
C1549       C  0.73389369  0.37529992  0.86337539    -0.00200
C1550       C  0.76217245  0.39301939  0.84217894    -0.12100
C1551       C  0.80114952  0.41093445  0.84940129     0.02000
C1552       C  0.81194053  0.41132512  0.87833885    -0.00300
C1553       C  0.78338486  0.39443927  0.89946619    -0.12000
C1554       C  0.74469082  0.37636521  0.89221721     0.01900
H1555       H  0.75378818  0.39258098  0.82002815     0.14900
H1556       H  0.79120221  0.39461304  0.92173405     0.14900
C1557       C  0.71643490  0.35920144  0.91481091     0.36500
C1558       C  0.82926192  0.42961817  0.82691504     0.36400
N1559       N  0.69371106  0.34543161  0.93283111    -0.43800
N1560       N  0.85169807  0.44461967  0.80882726    -0.43800
C1561       C  0.58626274  0.42489025  0.86420430    -0.00200
C1562       C  0.56359252  0.38669780  0.85472775    -0.12100
C1563       C  0.57954137  0.36476004  0.84927272     0.02000
C1564       C  0.61930604  0.38088364  0.85354598    -0.00300
C1565       C  0.64221874  0.41963660  0.86156435    -0.12000
C1566       C  0.62632992  0.44157353  0.86698917     0.01900
H1567       H  0.53296750  0.37359010  0.85178426     0.14900
H1568       H  0.67279015  0.43277892  0.86483633     0.14900
C1569       C  0.65229168  0.48038862  0.87663658     0.36500
C1570       C  0.55411005  0.32591684  0.83931057     0.36400
N1571       N  0.67400991  0.51140639  0.88423376    -0.43800
N1572       N  0.53354729  0.29480040  0.83138788    -0.43800
C1573       C  0.87033857  0.12835020  0.60563060    -0.00200
C1574       C  0.84952268  0.08948672  0.61336774    -0.12100
C1575       C  0.86785640  0.07027732  0.62014681     0.02000
C1576       C  0.90834857  0.08987803  0.61933481    -0.00300
C1577       C  0.92914025  0.12806954  0.60997161    -0.12000
C1578       C  0.91071567  0.14726521  0.60293325     0.01900
H1579       H  0.81853515  0.07393933  0.61507183     0.14900
H1580       H  0.96006852  0.14328574  0.60813605     0.14900
C1581       C  0.93427707  0.18613950  0.59281420     0.36500
C1582       C  0.84383408  0.03072308  0.62857861     0.36400
N1583       N  0.95333993  0.21724676  0.58464547    -0.43800
N1584       N  0.82386631  0.99901034  0.63510581    -0.43800
C1585       C  0.90430834  0.32476310  0.62379847    -0.00200
C1586       C  0.87152832  0.30716205  0.60621888    -0.12100
C1587       C  0.85376625  0.26866534  0.59811229     0.02000
C1588       C  0.86917086  0.24709465  0.60737102    -0.00300
C1589       C  0.90344095  0.26554577  0.62339062    -0.12000
C1590       C  0.92085047  0.30390770  0.63180314     0.01900
H1591       H  0.85884625  0.32309003  0.59962437     0.14900
H1592       H  0.91587560  0.24957255  0.63046824     0.14900
C1593       C  0.95587223  0.32130169  0.64838395     0.36500
C1594       C  0.81972504  0.25211869  0.58040691     0.36400
N1595       N  0.98403728  0.33526386  0.66155000    -0.43800
N1596       N  0.79240301  0.23887555  0.56628894    -0.43800
C1597       C  0.67134026  0.08951970  0.62890813    -0.00200
C1598       C  0.69551114  0.08050702  0.64311210    -0.12100
C1599       C  0.73376838  0.09685454  0.63487455     0.02000
C1600       C  0.74872283  0.12278897  0.61174466    -0.00300
C1601       C  0.72440810  0.13075181  0.59669899    -0.12000
C1602       C  0.68594593  0.11419328  0.60481621     0.01900
H1603       H  0.68491416  0.06129228  0.66129570     0.14900
H1604       H  0.73577509  0.15066021  0.57889393     0.14900
C1605       C  0.66298281  0.12440171  0.58855424     0.36500
C1606       C  0.75772104  0.08873775  0.65201896     0.36400
N1607       N  0.64485723  0.13276379  0.57532725    -0.43800
N1608       N  0.77694564  0.08239388  0.66584635    -0.43800
C1609       C  0.87162392  0.12244085  0.98405386    -0.00200
C1610       C  0.89897603  0.13512185  0.96208137    -0.12100
C1611       C  0.91659118  0.11529287  0.95529837     0.02000
C1612       C  0.90694028  0.08214672  0.97071456    -0.00300
C1613       C  0.87933369  0.06908100  0.99257476    -0.12000
C1614       C  0.85698308  0.08591762  0.49613305     0.01900
H1615       H  0.90562489  0.15988074  0.94945092     0.14900
H1616       H  0.86308629  0.03767137  0.50099158     0.14900
C1617       C  0.82633399  0.07111442  0.51691257     0.36500
C1618       C  0.94259162  0.12807190  0.93121044     0.36400
N1619       N  0.80178957  0.05927760  0.53357953    -0.43800
N1620       N  0.96301293  0.13791288  0.91167767    -0.43800
C1621       C  0.91262603  0.32180019  0.96774205    -0.00200
C1622       C  0.93211957  0.30302023  0.96370568    -0.12100
C1623       C  0.91064309  0.26231881  0.45786365     0.02000
C1624       C  0.87827018  0.24429617  0.98394103    -0.00300
C1625       C  0.85992697  0.26409557  0.98951624    -0.12000
C1626       C  0.87671079  0.30242101  0.98171917     0.01900
H1627       H  0.95118599  0.31404663  0.43604131     0.14900
H1628       H  0.83161884  0.24922412  0.99914625     0.14900
C1629       C  0.85502103  0.32005895  0.98652413     0.36500
C1630       C  0.92351534  0.24127665  0.44194177     0.36400
N1631       N  0.83744953  0.33398671  0.99038924    -0.43800
N1632       N  0.93447153  0.22553659  0.42841522    -0.43800
C1633       C  0.75343960  0.12304933  0.98217799    -0.00200
C1634       C  0.73539830  0.14262803  0.49165724    -0.12100
C1635       C  0.69534815  0.12484738  0.98509811     0.02000
C1636       C  0.67538923  0.09149147  0.96789234    -0.00300
C1637       C  0.69470250  0.07418934  0.95824701    -0.12000
C1638       C  0.73316630  0.08926381  0.96532749     0.01900
H1639       H  0.75156363  0.17033352  0.50221682     0.14900
H1640       H  0.67982430  0.04911302  0.94457148     0.14900
C1641       C  0.75129729  0.07053319  0.95342514     0.36500
C1642       C  0.67961944  0.14836586  0.49330574     0.36400
N1643       N  0.76561426  0.05536277  0.94381527    -0.43800
N1644       N  0.66654158  0.16624037  0.49912349    -0.43800
C1645       C  0.85043085  0.64417745  0.98567912     0.80200
N1646       N  0.87276107  0.68300938  0.98730313    -0.78100
C1647       C  0.85720157  0.70455001  0.98458192     0.82600
N1648       N  0.81889383  0.68699230  0.98005236    -0.78100
C1649       C  0.79634690  0.64832009  0.97798439     0.82700
N1650       N  0.81233072  0.62723573  0.98073100    -0.79800
C1651       C  0.85825845  0.65184802  0.10655781     0.80200
N1652       N  0.87750026  0.69061666  0.10577617    -0.78100
C1653       C  0.85830525  0.70888876  0.10583626     0.82600
N1654       N  0.81944815  0.68803970  0.10765838    -0.78100
C1655       C  0.79985911  0.64933197  0.10885768     0.82700
N1656       N  0.81939601  0.63154458  0.10819873    -0.79800
C1657       C  0.64094948  0.85540709  0.35838408     0.80200
N1658       N  0.61862871  0.81663538  0.35758852    -0.78100
C1659       C  0.63433725  0.79509341  0.35806890     0.82600
N1660       N  0.67302180  0.81263653  0.35979220    -0.78100
C1661       C  0.69576292  0.85138575  0.36043433     0.82700
N1662       N  0.67967026  0.87260061  0.36005861    -0.79800
C1663       C  0.63589037  0.85658271  0.23650209     0.80200
N1664       N  0.61807922  0.81778607  0.23547615    -0.78100
C1665       C  0.63895655  0.80121782  0.23448295     0.82600
N1666       N  0.67780374  0.82364193  0.23395145    -0.78100
C1667       C  0.69594194  0.86227112  0.23501861     0.82700
N1668       N  0.67484698  0.87839620  0.23623727    -0.79800
C1669       C  0.57050257  0.94140997  0.38501205     0.42400
N1670       N  0.52504384  0.95173993  0.39064342     0.01300
C1671       C  0.53718081  0.62104559  0.41220662    -0.06600
H1672       H  0.59482931  0.57825005  0.49019117     0.06800
C1673       C  0.96985628  0.96929823  0.01699657    -0.06900
Co1674     Co  0.54767057  0.53055126  0.38816962     0.74200
N1675       N  0.56937406  0.55598422  0.44883787    -0.26100
Co1676     Co  0.51702597  0.55144094  0.45039622     0.74100
C1677       C  0.00215363  0.99729896  0.03453488     0.42500
N1678       N  0.94001402  0.91418723  0.45130246     0.00900
N1679       N  0.50028172  0.51470475  0.48522236     0.01000
N1680       N  0.55835641  0.60726595  0.37204119    -0.47000
H1681       H  0.61622086  0.00635573  0.38642504     0.06800
N1682       N  0.58143092  0.54805807  0.42522546     0.01300
N1683       N  0.96774706  0.54928990  0.45779184     0.01000
C1684       C  0.92378562  0.56033969  0.46744776     0.42600
N1685       N  0.95152666  0.90729024  0.42688465    -0.25600
C1686       C  0.51902339  0.53027257  0.32680839    -0.06500
N1687       N  0.53193375  0.92431528  0.38641329    -0.46700
N1688       N  0.96194822  0.57689700  0.46427999    -0.46900
C1689       C  0.98729320  0.50915648  0.31187583     0.42400
N1690       N  0.54561532  0.57951999  0.39121091     0.01300
N1691       N  0.91473106  0.93940117  0.39521845    -0.25600
N1692       N  0.55677747  0.98594829  0.39173785    -0.26100
N1693       N  0.90318681  0.94618588  0.41966246     0.00900
H1694       H  0.88694386  0.91750047  0.35421508     0.06800
H1695       H  0.87661549  0.49597243  0.46410227     0.06800
N1696       N  0.53353348  0.58711907  0.41496501    -0.26100
N1697       N  0.97279179  0.98000182  0.49222162    -0.25700
N1698       N  0.98377911  0.98281383  0.35828343     0.01300
C1699       C  0.62869363  0.56965658  0.45471725     0.42700
C1700       C  0.94613260  0.87239924  0.42815619    -0.07000
N1701       N  0.93569420  0.51534457  0.45664707    -0.25700
H1702       H  0.94487181  0.94208101  0.02308101     0.06800
N1703       N  0.61689887  0.55598856  0.42774862    -0.47000
H1704       H  0.95058014  0.85795200  0.41063815     0.06800
C1705       C  0.85544797  0.92676790  0.39112229     0.42500
C1706       C  0.58695778  0.98251328  0.38829976    -0.06500
Co1707     Co  0.96764776  0.94453066  0.39221887     0.73800
N1708       N  0.92590325  0.88512991  0.46934713    -0.46700
C1709       C  0.55361516  0.63441498  0.38364479     0.42800
N1710       N  0.96698572  0.97544424  0.33278261    -0.46700
Co1711     Co  0.93721967  0.96249585  0.45633366     0.73900
C1712       C  0.90620252  0.51929916  0.46229910    -0.07000
C1713       C  0.59690243  0.56921251  0.46884446    -0.06600
N1714       N  0.51273917  0.51274463  0.35211008    -0.26100
N1715       N  0.52801366  0.52954428  0.00994533    -0.46900
H1716       H  0.53130215  0.63546690  0.42888298     0.06800
C1717       C  0.88647824  0.92705885  0.37577943    -0.07000
Cl1718     Cl  0.99339717  0.50139626  0.42095574    -0.50000
C1719       C  0.92898563  0.85773194  0.45634180     0.42500
H1720       H  0.54420574  0.55757804  0.32115857     0.06800
N1721       N  0.86771759  0.93839638  0.41828178    -0.46700
C1722       C  0.63984402  0.57334179  0.13958919     0.42400
N1723       N  0.58259685  0.56088440  0.14399622     0.01300
C1724       C  0.96015128  0.97442989  0.26727750    -0.06600
H1725       H  0.49268223  0.88972214  0.21435766     0.06800
C1726       C  0.92670944  0.89681315  0.12417224    -0.06900
Co1727     Co  0.55078383  0.53148719  0.20255383     0.74200
N1728       N  0.51199354  0.94889012  0.20890506    -0.26100
Co1729     Co  0.96093152  0.94655828  0.20528661     0.74100
C1730       C  0.92889259  0.86676648  0.13828333     0.42500
N1731       N  0.97948309  0.99254000  0.10782023     0.00900
N1732       N  0.94563056  0.91264570  0.16822585     0.01000
N1733       N  0.51736850  0.52776886  0.26187749    -0.47000
H1734       H  0.63910400  0.55227490  0.18552026     0.06800
N1735       N  0.54600395  0.98093314  0.20993934     0.01300
N1736       N  0.91154939  0.94766262  0.20086008     0.01000
C1737       C  0.85635015  0.93947893  0.20768810     0.42600
N1738       N  0.51781216  0.52673070  0.10174417    -0.25600
C1739       C  0.56421273  0.61082006  0.21979083    -0.06500
N1740       N  0.61209236  0.57545768  0.12619006    -0.46700
N1741       N  0.88361728  0.93549689  0.21990158    -0.46900
C1742       C  0.56393423  0.64140746  0.20455853     0.42400
N1743       N  0.51106965  0.51271547  0.23580062     0.01300
N1744       N  0.98068544  0.55961737  0.13721993    -0.25600
N1745       N  0.58943882  0.54983185  0.16855563    -0.26100
N1746       N  0.94665860  0.52760446  0.13628943     0.00900
H1747       H  0.99972912  0.61895674  0.13332013     0.06800
H1748       H  0.85538745  0.96016392  0.16199643     0.06800
N1749       N  0.97716772  0.98153286  0.24154574    -0.26100
N1750       N  0.93774857  0.92394661  0.14427009    -0.25700
N1751       N  0.54687265  0.59452062  0.17553222     0.01300
C1752       C  0.55725382  0.93656110  0.21714179     0.42700
C1753       C  0.53533922  0.53339901  0.07619293    -0.07000
N1754       N  0.90407211  0.95884383  0.17665169    -0.25700
H1755       H  0.91769351  0.89784316  0.10256842     0.06800
N1756       N  0.57387815  0.97487108  0.21493023    -0.47000
H1757       H  0.56212913  0.55910266  0.07034634     0.06800
C1758       C  0.93525474  0.57195485  0.13060240     0.42500
C1759       C  0.62485345  0.55634849  0.16776477    -0.06500
Co1760     Co  0.53305017  0.56137715  0.13832384     0.73800
N1761       N  0.97221708  0.97599016  0.08224357    -0.46700
C1762       C  0.98670595  0.50820993  0.28062033     0.42800
N1763       N  0.55351558  0.62947922  0.17717142    -0.46700
Co1764     Co  0.94106031  0.97542367  0.14175687     0.73900
C1765       C  0.86983263  0.95490726  0.17893357    -0.07000
C1766       C  0.51604978  0.91930878  0.21311112    -0.06600
N1767       N  0.55338991  0.58308376  0.20005369    -0.26100
N1768       N  0.94036620  0.87824022  0.16568228    -0.45900
H1769       H  0.93366145  0.94845589  0.27321732     0.06800
C1770       C  0.97651719  0.58924855  0.13395352    -0.07000
Cl1771     Cl  0.99590891  0.50275311  0.17168835    -0.50000
C1772       C  0.00323885  0.99857478  0.06587905     0.42500
H1773       H  0.57340136  0.61052906  0.24148869     0.06800
N1774       N  0.91864971  0.53364682  0.13213407    -0.46700
C1775       C  0.62011862  0.75983334  0.22867958    -0.00200
C1776       C  0.63373721  0.74865932  0.20550879    -0.12100
C1777       C  0.61598315  0.71022329  0.19763722     0.02000
C1778       C  0.58414243  0.68196145  0.21332257    -0.00300
C1779       C  0.57137398  0.69278256  0.23728910    -0.12000
C1780       C  0.58891498  0.73155775  0.24492482     0.01900
H1781       H  0.65792527  0.77019175  0.19305982     0.14900
H1782       H  0.54729470  0.67103286  0.24967975     0.14900
C1783       C  0.57526735  0.74155552  0.26987788     0.36500
C1784       C  0.63150297  0.70047377  0.17369387     0.36400
N1785       N  0.56444485  0.74955603  0.28996235    -0.43800
N1786       N  0.64392677  0.69260029  0.15455625    -0.43800
C1787       C  0.73807357  0.88615540  0.23160360    -0.00200
C1788       C  0.76025706  0.87328247  0.24370450    -0.12100
C1789       C  0.79940366  0.89144648  0.23766956     0.02000
C1790       C  0.81698455  0.92304126  0.21879697    -0.00300
C1791       C  0.79531758  0.93732351  0.20812914    -0.12000
C1792       C  0.75624880  0.91935743  0.21433252     0.01900
H1793       H  0.74665516  0.84812419  0.25727190     0.14900
H1794       H  0.80865647  0.96196290  0.19405496     0.14900
C1795       C  0.73534073  0.93417553  0.20086013     0.36500
C1796       C  0.81986190  0.87534001  0.24978104     0.36400
N1797       N  0.71887679  0.94626636  0.18992768    -0.43800
N1798       N  0.83607388  0.86225950  0.25954002    -0.43800
C1799       C  0.61405724  0.87590374  0.23436831    -0.00200
C1800       C  0.63502743  0.91622653  0.23413868    -0.12100
C1801       C  0.61742280  0.93653455  0.22887218     0.02000
C1802       C  0.57743950  0.91661889  0.22398453    -0.00300
C1803       C  0.55609540  0.87642037  0.22557245    -0.12000
C1804       C  0.57375577  0.85600557  0.23062228     0.01900
H1805       H  0.66580376  0.93242041  0.23749646     0.14900
H1806       H  0.52533102  0.86044324  0.22247023     0.14900
C1807       C  0.54940774  0.81477070  0.23133169     0.36500
C1808       C  0.64166342  0.97779144  0.22833985     0.36400
N1809       N  0.52962427  0.78174510  0.23183758    -0.43800
N1810       N  0.66138797  0.01082448  0.22796310    -0.43800
C1811       C  0.60966424  0.75306692  0.36097758    -0.00200
C1812       C  0.62053060  0.73007530  0.34724378    -0.12100
C1813       C  0.60107324  0.69068817  0.35256439     0.02000
C1814       C  0.57068036  0.67389833  0.37268728    -0.00300
C1815       C  0.55838529  0.69657163  0.38491331    -0.12000
C1816       C  0.57734763  0.73568526  0.37925440     0.01900
H1817       H  0.64488065  0.74311639  0.33276873     0.14900
H1818       H  0.53456680  0.68403508  0.39982648     0.14900
C1819       C  0.56453651  0.75747062  0.39427296     0.36500
C1820       C  0.61409809  0.66890217  0.33788485     0.36400
N1821       N  0.55415727  0.77479334  0.40633938    -0.43800
N1822       N  0.62453956  0.65155545  0.32593295    -0.43800
C1823       C  0.73656736  0.86988176  0.36770516    -0.00200
C1824       C  0.76465105  0.89175076  0.34711530    -0.12100
C1825       C  0.80375195  0.91043707  0.35408217     0.02000
C1826       C  0.81489564  0.90784599  0.38225243    -0.00300
C1827       C  0.78655723  0.88631117  0.40282473    -0.12000
C1828       C  0.74769331  0.86711114  0.39572229     0.01900
H1829       H  0.75601376  0.89417929  0.32563652     0.14900
H1830       H  0.79476631  0.88401154  0.42448817     0.14900
C1831       C  0.71967340  0.84529319  0.41771147     0.36500
C1832       C  0.83166727  0.93309315  0.33230851     0.36400
N1833       N  0.69720828  0.82778023  0.43529163    -0.43800
N1834       N  0.85399641  0.95123021  0.31481355    -0.43800
C1835       C  0.59001490  0.92112798  0.37706023    -0.00200
C1836       C  0.56777343  0.88457707  0.36456106    -0.12100
C1837       C  0.58383554  0.86338168  0.35689998     0.02000
C1838       C  0.62319276  0.87837406  0.36223732    -0.00300
C1839       C  0.64567562  0.91542992  0.37391203    -0.12000
C1840       C  0.62968964  0.93676640  0.38134221     0.01900
H1841       H  0.53749135  0.87238207  0.36053105     0.14900
H1842       H  0.67587888  0.92757567  0.37824086     0.14900
C1843       C  0.65497739  0.97382095  0.39428160     0.36500
C1844       C  0.55903199  0.82666623  0.34323317     0.36400
N1845       N  0.67608286  0.00349071  0.40444788    -0.43800
N1846       N  0.53900381  0.79728001  0.33228904    -0.43800
C1847       C  0.87892562  0.63170225  0.11009887    -0.00200
C1848       C  0.85731507  0.59277672  0.11761196    -0.12100
C1849       C  0.87479843  0.57288832  0.12449666     0.02000
C1850       C  0.91512454  0.59165187  0.12348631    -0.00300
C1851       C  0.93682754  0.63018684  0.11501772    -0.12000
C1852       C  0.91932475  0.65025794  0.10827915     0.01900
H1853       H  0.82632791  0.57761416  0.11889950     0.14900
H1854       H  0.96774133  0.64495712  0.11343941     0.14900
C1855       C  0.94390139  0.68958813  0.09937398     0.36500
C1856       C  0.85011365  0.53356132  0.13322447     0.36400
N1857       N  0.96385704  0.72107024  0.09224549    -0.43800
N1858       N  0.82952996  0.50209038  0.14006345    -0.43800
C1859       C  0.91413991  0.82786003  0.12707683    -0.00200
C1860       C  0.88217970  0.81095679  0.10864215    -0.12100
C1861       C  0.86479963  0.77279148  0.09986612     0.02000
C1862       C  0.87953091  0.75088372  0.10960402    -0.00300
C1863       C  0.91325485  0.76875386  0.12621488    -0.12000
C1864       C  0.93050468  0.80685584  0.13505134     0.01900
H1865       H  0.86981535  0.82710434  0.10186608     0.14900
H1866       H  0.92527906  0.75248373  0.13349346     0.14900
C1867       C  0.96520262  0.82380083  0.15196520     0.36500
C1868       C  0.83196199  0.75689887  0.08092407     0.36400
N1869       N  0.99318994  0.83735423  0.16530565    -0.43800
N1870       N  0.80570542  0.74419779  0.06571214    -0.43800
C1871       C  0.67991621  0.59121642  0.12945103    -0.00200
C1872       C  0.70304334  0.58002786  0.14239869    -0.12100
C1873       C  0.74188306  0.59789638  0.13558196     0.02000
C1874       C  0.75831417  0.62737075  0.11489979    -0.00300
C1875       C  0.73515795  0.63812352  0.10145455    -0.12000
C1876       C  0.69629855  0.62045343  0.10848701     0.01900
H1877       H  0.69100875  0.55770210  0.15845008     0.14900
H1878       H  0.74768783  0.66097539  0.08576350     0.14900
C1879       C  0.67483460  0.63448979  0.09482741     0.36500
C1880       C  0.76454359  0.58724719  0.15183761     0.36400
N1881       N  0.65789726  0.64603362  0.08386163    -0.43800
N1882       N  0.78252778  0.57877050  0.16512796    -0.43800
C1883       C  0.86479527  0.61731873  0.48881820    -0.00200
C1884       C  0.90493405  0.63856352  0.48581384    -0.12100
C1885       C  0.92495246  0.62081619  0.47986498     0.02000
C1886       C  0.90472418  0.58057914  0.47653288    -0.00300
C1887       C  0.86511902  0.55909608  0.48198491    -0.12000
C1888       C  0.84696570  0.58070984  0.98374460     0.01900
H1889       H  0.92101334  0.66950943  0.48731974     0.14900
H1890       H  0.84827404  0.53040770  0.97594016     0.14900
C1891       C  0.80625536  0.55783730  0.98936506     0.36500
C1892       C  0.96613031  0.64515715  0.47706851     0.36400
N1893       N  0.77369146  0.53925457  0.99405556    -0.43800
N1894       N  0.99911803  0.66506262  0.47513684    -0.43800
C1895       C  0.90955324  0.81749341  0.46590447    -0.00200
C1896       C  0.92429350  0.79558210  0.45675170    -0.12100
C1897       C  0.91671661  0.76551675  0.96739725     0.02000
C1898       C  0.87115201  0.73876272  0.47932882    -0.00300
C1899       C  0.85669979  0.76084631  0.48882935    -0.12000
C1900       C  0.87540747  0.79979659  0.48228223     0.01900
H1901       H  0.96062091  0.81822489  0.94832590     0.14900
H1902       H  0.83017591  0.74742196  0.50096965     0.14900
C1903       C  0.85738466  0.81998306  0.49112021     0.36500
C1904       C  0.93349796  0.74539676  0.95571039     0.36400
N1905       N  0.84269827  0.83596238  0.49810260    -0.43800
N1906       N  0.94741517  0.72980041  0.94618471    -0.43800
C1907       C  0.74642786  0.61818854  0.47972266    -0.00200
C1908       C  0.73526816  0.64592739  0.98135040    -0.12100
C1909       C  0.68649031  0.61577609  0.48583261     0.02000
C1910       C  0.66849010  0.58601551  0.46513743    -0.00300
C1911       C  0.68996178  0.57282579  0.45223978    -0.12000
C1912       C  0.72835508  0.58818124  0.45941159     0.01900
H1913       H  0.74993350  0.67119392  0.99496072     0.14900
H1914       H  0.67696674  0.55122836  0.43567380     0.14900
C1915       C  0.74905885  0.57448357  0.44392489     0.36500
C1916       C  0.67885139  0.65018335  0.98430474     0.36400
N1917       N  0.76550578  0.56345349  0.43140514    -0.43800
N1918       N  0.66490171  0.66647423  0.99230092    -0.43800
C1919       C  0.84476291  0.63841455  0.48951965     0.80200
N1920       N  0.86558626  0.67721041  0.48771489    -0.78100
C1921       C  0.84821624  0.69698529  0.48454862     0.82600
N1922       N  0.80936121  0.67762896  0.48335328    -0.78100
C1923       C  0.78811768  0.63888319  0.48492938     0.82700
N1924       N  0.80595738  0.61948727  0.48773038    -0.79800
C1925       C  0.84842888  0.64951098  0.61357219     0.80200
N1926       N  0.86744737  0.68824494  0.61376088    -0.78100
C1927       C  0.84795717  0.70617412  0.61315439     0.82600
N1928       N  0.80897486  0.68487353  0.61298591    -0.78100
C1929       C  0.78967759  0.64606183  0.61291519     0.82700
N1930       N  0.80954826  0.62853033  0.61314784    -0.79800
C1931       C  0.64237453  0.86332450  0.85745256     0.80200
N1932       N  0.62062331  0.82453128  0.85650582    -0.78100
C1933       C  0.63721719  0.80378958  0.85791610     0.82600
N1934       N  0.67602548  0.82230609  0.86013123    -0.78100
C1935       C  0.69820721  0.86116941  0.86135484     0.82700
N1936       N  0.68107624  0.88144624  0.86031310    -0.79800
C1937       C  0.63347374  0.86230548  0.73084171     0.80200
N1938       N  0.61508669  0.82366966  0.72860428    -0.78100
C1939       C  0.63522176  0.80650574  0.72687690     0.82600
N1940       N  0.67410526  0.82810939  0.72677932    -0.78100
C1941       C  0.69277356  0.86672160  0.72918737     0.82700
N1942       N  0.67236687  0.88350912  0.73112595    -0.79800
C1943       C  0.56564679  0.94297140  0.88076004     0.42400
N1944       N  0.52110227  0.95396399  0.88700880     0.01300
C1945       C  0.54230661  0.62860803  0.91365861    -0.06600
H1946       H  0.60578899  0.58796720  0.98559109     0.06800
C1947       C  0.96699966  0.96342342  0.51795658    -0.06900
Co1948     Co  0.55070632  0.53814065  0.88550059     0.74200
N1949       N  0.57671227  0.56374928  0.94550836    -0.26100
Co1950     Co  0.52395988  0.55761893  0.95020084     0.74100
C1951       C  0.99941123  0.99150972  0.53543727     0.42500
N1952       N  0.94374283  0.91945484  0.95162688     0.00900
N1953       N  0.51033982  0.52062543  0.98472376     0.01000
N1954       N  0.56069445  0.61511896  0.87193100    -0.47000
H1955       H  0.61286849  0.00689952  0.88467509     0.06800
N1956       N  0.58727956  0.55622303  0.92092950     0.01300
N1957       N  0.96625892  0.54720982  0.95665578     0.01000
C1958       C  0.92308437  0.55958893  0.96529438     0.42600
N1959       N  0.95566259  0.91189750  0.92771749    -0.25600
C1960       C  0.51600616  0.53750560  0.82663929    -0.06500
N1961       N  0.52721715  0.92615823  0.88183383    -0.46700
N1962       N  0.96104467  0.57541589  0.96195159    -0.46900
C1963       C  0.98090118  0.50391311  0.81196167     0.42400
N1964       N  0.54801797  0.58663319  0.89044806     0.01300
N1965       N  0.91843502  0.94219387  0.89446874    -0.25600
N1966       N  0.55319922  0.98794654  0.88880444    -0.26100
N1967       N  0.90672742  0.95012333  0.91830549     0.00900
H1968       H  0.89110081  0.91821102  0.85367131     0.06800
H1969       H  0.87511258  0.49529096  0.96365930     0.06800
N1970       N  0.53760459  0.59398956  0.91515662    -0.26100
N1971       N  0.97573490  0.98599077  0.99131934    -0.25700
N1972       N  0.98814250  0.98593382  0.85815837     0.01300
C1973       C  0.63697690  0.57982445  0.94785980     0.42700
C1974       C  0.95212346  0.87796041  0.93047911    -0.07000
N1975       N  0.93399977  0.51340274  0.95637042    -0.25700
H1976       H  0.94177132  0.93650318  0.52422845     0.06800
N1977       N  0.62335419  0.56558017  0.92134099    -0.47000
H1978       H  0.95786396  0.86338004  0.91383882     0.06800
C1979       C  0.85858148  0.92773698  0.88966173     0.42500
C1980       C  0.58299829  0.98389751  0.88526619    -0.06500
Co1981     Co  0.97165388  0.94797966  0.89235674     0.73800
N1982       N  0.93127031  0.89182555  0.97082043    -0.46700
C1983       C  0.55773249  0.64265229  0.88491346     0.42800
N1984       N  0.97030633  0.97899310  0.83314183    -0.46700
Co1985     Co  0.94071135  0.96773318  0.95519858     0.73900
C1986       C  0.90485248  0.51816233  0.96150772    -0.07000
C1987       C  0.60600838  0.57832822  0.96401721    -0.06600
N1988       N  0.51280843  0.51964580  0.85130671    -0.26100
N1989       N  0.51684223  0.52351005  0.51081644    -0.46900
H1990       H  0.53848102  0.64334261  0.93128481     0.06800
C1991       C  0.89004183  0.92805355  0.87499353    -0.07000
Cl1992     Cl  0.99082465  0.49809113  0.92076816    -0.50000
C1993       C  0.93593994  0.86473971  0.95914419     0.42500
H1994       H  0.53986987  0.56546382  0.82057247     0.06800
N1995       N  0.87109033  0.94186116  0.91637297    -0.46700
C1996       C  0.62875133  0.57159471  0.63922645     0.42400
N1997       N  0.57212423  0.56111819  0.64320195     0.01300
C1998       C  0.95949174  0.97888721  0.76834829    -0.06600
H1999       H  0.49021359  0.89425956  0.71259076     0.06800
C2000       C  0.92077754  0.89602276  0.62682224    -0.06900
Co2001     Co  0.54119987  0.53598786  0.70264208     0.74200
N2002       N  0.50857264  0.95314192  0.70804614    -0.26100
Co2003     Co  0.95766171  0.94944328  0.70648707     0.74100
C2004       C  0.92208103  0.86611801  0.64203752     0.42500
N2005       N  0.97525951  0.99130675  0.60780663     0.00900
N2006       N  0.94124005  0.91407247  0.67031626     0.01000
N2007       N  0.50955944  0.53477650  0.76217051    -0.47000
H2008       H  0.62809833  0.55388170  0.68625369     0.06800
N2009       N  0.54235163  0.98550964  0.70905153     0.01300
N2010       N  0.90875849  0.95138821  0.70164019     0.01000
C2011       C  0.85405230  0.94446074  0.70785502     0.42600
N2012       N  0.50629872  0.52446731  0.60171814    -0.25600
C2013       C  0.55518008  0.61651022  0.71613048    -0.06500
N2014       N  0.60126087  0.57359917  0.62517309    -0.46700
N2015       N  0.88088219  0.94023354  0.72062025    -0.46900
C2016       C  0.55516204  0.64609031  0.69917298     0.42400
N2017       N  0.50211297  0.51917782  0.73624244     0.01300
N2018       N  0.97273274  0.55883802  0.63437220    -0.25600
N2019       N  0.57911456  0.55179485  0.66845550    -0.26100
N2020       N  0.93882466  0.52669537  0.63252074     0.00900
H2021       H  0.99145328  0.61825026  0.63033280     0.06800
H2022       H  0.85326280  0.96320507  0.66148174     0.06800
N2023       N  0.97506154  0.98565264  0.74209700    -0.26100
N2024       N  0.93325838  0.92449398  0.64596424    -0.25700
N2025       N  0.53691052  0.59691030  0.67253332     0.01300
C2026       C  0.55458120  0.94184207  0.71513993     0.42700
C2027       C  0.52341058  0.52938515  0.57622156    -0.07000
N2028       N  0.90139393  0.96183425  0.67700753    -0.25700
H2029       H  0.91104653  0.89599461  0.60525277     0.06800
N2030       N  0.57071881  0.98005274  0.71333426    -0.47000
H2031       H  0.55032314  0.55449892  0.56974754     0.06800
C2032       C  0.92762535  0.57074788  0.62570829     0.42500
C2033       C  0.61406362  0.55728124  0.66801538    -0.06500
Co2034     Co  0.52247741  0.56143023  0.63681039     0.73800
N2035       N  0.96832774  0.97297460  0.58300230    -0.46700
C2036       C  0.97797583  0.50448353  0.78065256     0.42800
N2037       N  0.54378698  0.63196152  0.67239438    -0.46700
Co2038     Co  0.93732345  0.97624421  0.64183608     0.73900
C2039       C  0.86755176  0.95858697  0.67889252    -0.07000
C2040       C  0.51327032  0.92396253  0.71161742    -0.06600
N2041       N  0.54373742  0.58725765  0.69773202    -0.26100
N2042       N  0.93461551  0.87905692  0.66900174    -0.45900
H2043       H  0.93357819  0.95279662  0.77497931     0.06800
C2044       C  0.96854942  0.58837936  0.63061932    -0.07000
Cl2045     Cl  0.98683373  0.50215845  0.67010975    -0.50000
C2046       C  0.99978874  0.99425193  0.56668767     0.42500
H2047       H  0.56491031  0.61788590  0.73792920     0.06800
N2048       N  0.91085037  0.53249223  0.62726350    -0.46700
C2049       C  0.61508576  0.76534333  0.72085549    -0.00200
C2050       C  0.62220921  0.75372272  0.69460721    -0.12100
C2051       C  0.60257030  0.71507291  0.68700408     0.02000
C2052       C  0.57568196  0.68720467  0.70622184    -0.00300
C2053       C  0.56910785  0.69882871  0.73280200    -0.12000
C2054       C  0.58822747  0.73775796  0.74006668     0.01900
H2055       H  0.64284600  0.77503471  0.67980840     0.14900
H2056       H  0.54872959  0.67753041  0.74770827     0.14900
C2057       C  0.58071132  0.74877069  0.76752977     0.36500
C2058       C  0.61159457  0.70487698  0.65976430     0.36400
N2059       N  0.57485107  0.75771459  0.78955208    -0.43800
N2060       N  0.61877825  0.69666657  0.63794854    -0.43800
C2061       C  0.73484066  0.89034375  0.72706116    -0.00200
C2062       C  0.75647504  0.87849869  0.74150841    -0.12100
C2063       C  0.79615905  0.89756691  0.73758149     0.02000
C2064       C  0.81448940  0.92845484  0.71813005    -0.00300
C2065       C  0.79315668  0.94186935  0.70535750    -0.12000
C2066       C  0.75369781  0.92323620  0.70958423     0.01900
H2067       H  0.74217661  0.85379775  0.75551193     0.14900
H2068       H  0.80711113  0.96627379  0.69109760     0.14900
C2069       C  0.73324596  0.93702620  0.69397173     0.36500
C2070       C  0.81665420  0.88371469  0.75297411     0.36400
N2071       N  0.71722081  0.94835326  0.68133741    -0.43800
N2072       N  0.83284936  0.87256531  0.76559230    -0.43800
C2073       C  0.61216069  0.88197030  0.72956020    -0.00200
C2074       C  0.63345145  0.92218700  0.72772151    -0.12100
C2075       C  0.61562066  0.94240893  0.72339752     0.02000
C2076       C  0.57526937  0.92240732  0.72105654    -0.00300
C2077       C  0.55386705  0.88248265  0.72435404    -0.12000
C2078       C  0.57163898  0.86214813  0.72839562     0.01900
H2079       H  0.66449538  0.93825636  0.72901241     0.14900
H2080       H  0.52289266  0.86662861  0.72367393     0.14900
C2081       C  0.54705561  0.82107456  0.73105128     0.36500
C2082       C  0.63990897  0.98355781  0.72127709     0.36400
N2083       N  0.52711027  0.78819242  0.73314554    -0.43800
N2084       N  0.65972091  0.01650978  0.71973994    -0.43800
C2085       C  0.61336899  0.76162808  0.86151958    -0.00200
C2086       C  0.62633974  0.73924325  0.84984163    -0.12100
C2087       C  0.60797962  0.70017706  0.85617727     0.02000
C2088       C  0.57568311  0.68263901  0.87459432    -0.00300
C2089       C  0.56186948  0.70474432  0.88534669    -0.12000
C2090       C  0.58030416  0.74380105  0.87912033     0.01900
H2091       H  0.65180254  0.75265946  0.83648116     0.14900
H2092       H  0.53717330  0.69172255  0.89947821     0.14900
C2093       C  0.56640155  0.76529573  0.89310242     0.36500
C2094       C  0.62490560  0.67985490  0.84520139     0.36400
N2095       N  0.55544026  0.78259676  0.90441807    -0.43800
N2096       N  0.63880848  0.66383058  0.83651019    -0.43800
C2097       C  0.74020515  0.88060553  0.86660243    -0.00200
C2098       C  0.75944679  0.86342508  0.85610171    -0.12100
C2099       C  0.79819610  0.87852285  0.86259534     0.02000
C2100       C  0.81867126  0.91182193  0.87980469    -0.00300
C2101       C  0.79974674  0.92931881  0.88986872    -0.12000
C2102       C  0.76107527  0.91422811  0.88358307     0.01900
H2103       H  0.74388962  0.83747766  0.84329154     0.14900
H2104       H  0.81515358  0.95467229  0.90334447     0.14900
C2105       C  0.74368990  0.93291986  0.89672679     0.36500
C2106       C  0.81502880  0.85748856  0.85309780     0.36400
N2107       N  0.73114613  0.94887148  0.90788496    -0.43800
N2108       N  0.82815632  0.84024621  0.84555467    -0.43800
C2109       C  0.58566031  0.92312704  0.87436166    -0.00200
C2110       C  0.57246835  0.89628482  0.85182810    -0.12100
C2111       C  0.59133937  0.87739395  0.84501827     0.02000
C2112       C  0.62364076  0.88504665  0.86120099    -0.00300
C2113       C  0.63656310  0.91183831  0.88364555    -0.12000
C2114       C  0.61805126  0.93086139  0.89031167     0.01900
H2115       H  0.54774838  0.89047911  0.83929984     0.14900
H2116       H  0.66010088  0.91655742  0.89702016     0.14900
C2117       C  0.63117147  0.95588512  0.91505476     0.36500
C2118       C  0.57774026  0.85122443  0.82094000     0.36400
N2119       N  0.64156711  0.97547850  0.93514850    -0.43800
N2120       N  0.56689924  0.83042287  0.80152801    -0.43800
C2121       C  0.86959237  0.63019048  0.61622833    -0.00200
C2122       C  0.85679086  0.59630017  0.60062502    -0.12100
C2123       C  0.87527519  0.57635007  0.60324607     0.02000
C2124       C  0.90733103  0.59061622  0.62159970    -0.00300
C2125       C  0.92025666  0.62453622  0.63698867    -0.12000
C2126       C  0.90138415  0.64401932  0.63489746     0.01900
H2127       H  0.83236185  0.58545445  0.58628808     0.14900
H2128       H  0.94435822  0.63511541  0.65162763     0.14900
C2129       C  0.91350230  0.67609598  0.65402867     0.36500
C2130       C  0.86150881  0.54208225  0.58627574     0.36400
N2131       N  0.92342145  0.70124593  0.66997151    -0.43800
N2132       N  0.85048219  0.51464390  0.57264577    -0.43800
C2133       C  0.90567126  0.82626785  0.63239657    -0.00200
C2134       C  0.87359237  0.80917496  0.61404869    -0.12100
C2135       C  0.85522533  0.77048729  0.60635053     0.02000
C2136       C  0.86892616  0.74819466  0.61721860    -0.00300
C2137       C  0.90246297  0.76607905  0.63403792    -0.12000
C2138       C  0.92079012  0.80465497  0.64172737     0.01900
H2139       H  0.86218306  0.82575585  0.60623005     0.14900
H2140       H  0.91397702  0.74971169  0.64190985     0.14900
C2141       C  0.95557041  0.82151475  0.65858865     0.36500
C2142       C  0.82314396  0.75473447  0.58670071     0.36400
N2143       N  0.98359954  0.83497779  0.67188318    -0.43800
N2144       N  0.79762507  0.74212611  0.57078260    -0.43800
C2145       C  0.66869844  0.58758961  0.62923498    -0.00200
C2146       C  0.69171072  0.57829456  0.64478618    -0.12100
C2147       C  0.73080172  0.59598057  0.63909664     0.02000
C2148       C  0.74775944  0.62348105  0.61708990    -0.00300
C2149       C  0.72467040  0.63165241  0.60053715    -0.12000
C2150       C  0.68532744  0.61373482  0.60618674     0.01900
H2151       H  0.67946079  0.55779346  0.66209357     0.14900
H2152       H  0.73757912  0.65262397  0.58348800     0.14900
C2153       C  0.66337134  0.62394100  0.58865453     0.36500
C2154       C  0.75321777  0.58738861  0.65769148     0.36400
N2155       N  0.64577209  0.63211355  0.57457105    -0.43800
N2156       N  0.77112444  0.58059022  0.67269491    -0.43800
C2157       C  0.86845610  0.62125974  0.98490893    -0.00200
C2158       C  0.90855987  0.64081673  0.98285895    -0.12100
C2159       C  0.92702940  0.62147238  0.97729093     0.02000
C2160       C  0.90520457  0.58123862  0.97342748    -0.00300
C2161       C  0.86538103  0.56132460  0.97758307    -0.12000
C2162       C  0.84518313  0.57684966  0.48851643     0.01900
H2163       H  0.92587721  0.67169846  0.98489531     0.14900
H2164       H  0.84928864  0.52815366  0.48101791     0.14900
C2165       C  0.80486670  0.55241184  0.49509841     0.36500
C2166       C  0.96840237  0.64428823  0.97558571     0.36400
N2167       N  0.77264945  0.53255302  0.50057472    -0.43800
N2168       N  0.00154886  0.66297223  0.97449283    -0.43800
C2169       C  0.91908275  0.82554741  0.97041253    -0.00200
C2170       C  0.93475011  0.80447494  0.96123364    -0.12100
C2171       C  0.90552996  0.75660848  0.46317572     0.02000
C2172       C  0.88176770  0.74674048  0.98278838    -0.00300
C2173       C  0.86750352  0.76839836  0.99365457    -0.12000
C2174       C  0.88594772  0.80754371  0.98791800     0.01900
H2175       H  0.95028546  0.80881723  0.44398978     0.14900
H2176       H  0.84099735  0.75434636  0.00582967     0.14900
C2177       C  0.86865563  0.82756169  0.99882888     0.36500
C2178       C  0.92103456  0.73546541  0.45113504     0.36400
N2179       N  0.85466094  0.84341409  0.00770162    -0.43800
N2180       N  0.93360511  0.71879164  0.44124137    -0.43800
C2181       C  0.75527036  0.62971270  0.97076886    -0.00200
C2182       C  0.72513698  0.63147441  0.49287599    -0.12100
C2183       C  0.69672420  0.63031414  0.97433365     0.02000
C2184       C  0.67736909  0.59744220  0.95655664    -0.00300
C2185       C  0.69743214  0.58150745  0.94573173    -0.12000
C2186       C  0.73603422  0.59728510  0.95250560     0.01900
H2187       H  0.73912163  0.65503143  0.50811033     0.14900
H2188       H  0.68288415  0.55666918  0.93172313     0.14900
C2189       C  0.75539700  0.58077859  0.93895850     0.36500
C2190       C  0.66763282  0.63334335  0.49837435     0.36400
N2191       N  0.77064117  0.56742423  0.92786037    -0.43800
N2192       N  0.65301912  0.64800530  0.50837012    -0.43800
loop_ 
_geom_bond_atom_site_label_1 
_geom_bond_atom_site_label_2 
_geom_bond_distance 
_geom_bond_site_symmetry_2 
_ccdc_geom_bond_type 
C1            N2   1.359       .  A
C1            N6   1.358       .  A
C1          C513   1.482       .  S
N2            C3   1.356       .  A
C3            N4   1.358       .  A
C3          C528   1.484       .  S
N4            C5   1.362       .  A
C5            N6   1.360       .  A
C5          C537   1.492       .  S
C7            N8   1.355       .  A
C7           N12   1.359       .  A
C7          C203   1.493       .  S
N8            C9   1.356       .  A
C9           N10   1.358       .  A
C9          C218   1.479       .  S
N10          C11   1.359       .  A
C11          N12   1.357       .  A
C11         C230   1.482       .  S
C13          N14   1.354       .  A
C13          N18   1.357       .  A
C13         C194   1.486       .  S
N14          C15   1.355       .  A
C15          N16   1.358       .  A
C15         C167   1.468       .  S
N16          C17   1.359       .  A
C17          N18   1.357       .  A
C17         C179   1.478       .  S
C19          N20   1.360       .  A
C19          N24   1.358       .  A
C19         C155   1.495       .  S
N20          C21   1.360       .  A
C21          N22   1.357       .  A
C21         C131   1.477       .  S
N22          C23   1.356       .  A
C23          N24   1.353       .  A
C23         C143   1.474       .  S
C25          N43   1.353       .  A
C25          C62   1.465       .  S
C25         C191   1.487       .  S
N26          N43   1.322       .  A
N26          N48   1.318       .  A
N26       Co1159   2.084   1_455  S
C27          N52   1.335       .  A
C27          C65   1.464       .  S
C27          H72   1.080       .  S
H28          C69   1.081       .  S
C29         N327   1.338   1_554  A
C29          C33   1.458       .  S
C29          H58   1.082       .  S
Co30         N38   2.091       .  S
Co30         N70   2.080       .  S
Co30         N46   2.076       .  S
Co30        N596   2.077   1_545  S
Co30      Cl1170   2.449   1_445  S
N31          C69   1.340       .  A
N31          N38   1.318       .  A
N31         Co32   2.069       .  S
Co32         N35   2.075       .  S
Co32         N52   2.072       .  S
Co32       N1135   2.071   1_455  S
Co32      Cl1170   2.439   1_445  S
C33        N1715   1.349       .  A
C33         C128   1.463       .  S
N34          N41   1.320       .  A
N34          N64   1.322       .  A
N34         Co67   2.072       .  S
N35        N1697   1.319   1_445  A
N35         N345   1.321       .  A
N36          C65   1.351       .  A
N36          N46   1.323       .  A
H37          C62   1.077       .  S
N38          N59   1.323       .  A
N39          N57   1.320       .  A
N39          N44   1.322       .  A
N39       Co1128   2.079       .  S
C40          N44   1.348       .  A
C40          C68   1.456       .  S
C40         C242   1.467       .  S
N41          C56   1.340       .  A
N41         Co63   2.086       .  S
C42          N70   1.340       .  A
C42        C1141   1.458   1_455  S
C42          H76   1.081       .  S
C45         N614   1.350   1_545  A
C45         C118   1.458       .  S
C45        C1138   1.453       .  S
N46          N52   1.317       .  A
N47          C73   1.343       .  A
N47          N49   1.320       .  A
N47         Co63   2.088       .  S
N48          C62   1.337       .  A
N48        Co578   2.074       .  S
N49          N77   1.322       .  A
N49         Co67   2.081       .  S
H50          C73   1.082       .  S
H51          C68   1.082   1_565  S
N53         C303   1.340       .  A
N53        N1679   1.319       .  A
N53         Co67   2.082       .  S
N54          N66   1.325       .  A
N54        N1714   1.320       .  A
N54         Co63   2.089       .  S
C55          N59   1.352       .  A
C55          C69   1.457       .  S
C55         C266   1.477       .  S
C56          C75   1.461       .  S
C56          H60   1.082       .  S
N57          C68   1.339       .  A
N57        Co615   2.074   1_545  S
C61          N77   1.349       .  A
C61          C73   1.464       .  S
C61         C182   1.481       .  S
Co63       N1122   2.087       .  S
Co63       Cl622   2.450       .  S
N64          C75   1.347       .  A
C65         C170   1.485       .  S
N66         C593   1.351       .  A
Co67        N605   2.072       .  S
Co67       Cl622   2.450       .  S
N70        N1698   1.319   1_445  A
N71        C1677   1.348   1_545  A
N71         N309   1.323   1_554  A
Cl74      Co1126   2.446       .  S
Cl74      Co1128   2.442       .  S
Cl74       Co611   2.445   1_545  S
Cl74       Co615   2.449   1_545  S
C75         C251   1.474       .  S
C78          N96   1.349       .  A
C78         C115   1.465       .  S
C78         C227   1.486       .  S
N79          N96   1.323       .  A
N79         N101   1.319       .  A
N79        Co116   2.074       .  S
C80         N105   1.339       .  A
C80         C666   1.455       .  S
C80         H125   1.081       .  S
H81         C122   1.081   1_655  S
C82         N106   1.342       .  A
C82          C86   1.461       .  S
C82         H111   1.082       .  S
Co83        N101   2.088       .  S
Co83        N123   2.085       .  S
Co83         N99   2.085       .  S
Co83        N639   2.085   1_545  S
Co83      Cl1223   2.447   1_455  S
N84         C122   1.340       .  A
N84          N91   1.318       .  A
N84       Co1181   2.077   1_455  S
Co85         N88   2.083       .  S
Co85        N105   2.072       .  S
Co85         N92   2.071       .  S
Co85       N1180   2.076       .  S
Co85       Cl675   2.447       .  S
C86         N124   1.351       .  A
C86         C215   1.481       .  S
N87         N117   1.322       .  A
N87        N1738   1.320       .  A
N87        Co120   2.079       .  S
N88         N106   1.318       .  A
N88         N124   1.323       .  A
N89        C1214   1.349   1_455  A
N89          N99   1.324       .  A
H90         C115   1.081       .  S
N91         N112   1.323       .  A
N91        Co631   2.085       .  S
N92         N110   1.318       .  A
N92          N97   1.322       .  A
C93          N97   1.348       .  A
C93         C121   1.465       .  S
C93         C146   1.483       .  S
N94         C109   1.340       .  A
N94        N1731   1.319   1_445  A
N94        Co116   2.080       .  S
C95         N123   1.342       .  A
C95          C98   1.460       .  S
C95         H129   1.082       .  S
C98         N119   1.349       .  A
C98         C134   1.474       .  S
N99        N1749   1.320   1_445  A
N100        C126   1.342       .  A
N100        N102   1.319       .  A
N100      Co1212   2.085       .  S
N101        C115   1.341       .  A
N102        N130   1.322       .  A
N102       Co668   2.077   1_545  S
H103        C126   1.081       .  S
H104        C121   1.079       .  S
N105       N1743   1.318       .  A
N106       Co120   2.080       .  S
N107        N119   1.323       .  A
N107        N123   1.320       .  A
N107       Co116   2.083       .  S
C108        N112   1.351       .  A
C108        C122   1.465       .  S
C108        C158   1.490       .  S
C109       C1772   1.458   1_545  S
C109        H113   1.082       .  S
N110        C121   1.338       .  A
N110       Co120   2.080       .  S
C114        N130   1.349       .  A
C114        C126   1.467       .  S
C114        C206   1.488       .  S
Co116      N1196   2.072   1_455  S
Co116     Cl1223   2.444   1_455  S
N117        C128   1.347       .  A
C118       N1185   1.350       .  A
C118        C628   1.454   1_545  S
Co120       N650   2.082       .  S
Co120      Cl675   2.446       .  S
Cl127     Co1179   2.445       .  S
Cl127      Co633   2.444   1_545  S
Cl127     Co1212   2.449       .  S
Cl127      Co668   2.446   1_545  S
C128       C1753   1.462       .  S
C131        C132   1.403       .  A
C131        C136   1.412       .  A
C132        H137   1.085       .  S
C132        C133   1.397       .  A
C133        C134   1.411       .  A
C133        C140   1.445       .  S
C134        C135   1.403       .  A
C135        H138   1.085       .  S
C135        C136   1.404       .  A
C136        C139   1.444       .  S
C139        N141   1.157       .  T
C140        N142   1.157       .  T
C143        C144   1.400       .  A
C143        C148   1.412       .  A
C144        H149   1.085       .  S
C144        C145   1.399       .  A
C145        C146   1.417       .  A
C145        C152   1.444       .  S
C146        C147   1.404       .  A
C147        H150   1.083       .  S
C147        C148   1.397       .  A
C148        C151   1.445       .  S
C151        N153   1.157       .  T
C152        N154   1.157       .  T
C155        C156   1.408       .  A
C155        C160   1.418       .  A
C156        H161   1.084       .  S
C156        C157   1.397       .  A
C157        C158   1.414       .  A
C157        C164   1.444       .  S
C158        C159   1.406       .  A
C159        H162   1.082       .  S
C159        C160   1.402       .  A
C160        C163   1.444       .  S
C163        N165   1.158       .  T
C164        N166   1.157       .  T
C167        C168   1.399       .  A
C167        C172   1.409       .  A
C168        H173   1.085       .  S
C168        C169   1.401       .  A
C169        C170   1.418       .  A
C169        C176   1.444       .  S
C170        C171   1.405       .  A
C171        H174   1.082       .  S
C171        C172   1.394       .  A
C172        C175   1.446       .  S
C175        N177   1.157       .  T
C176        N178   1.157       .  T
C179        C180   1.402       .  A
C179        C184   1.411       .  A
C180        H185   1.085       .  S
C180        C181   1.395       .  A
C181        C182   1.413       .  A
C181        C188   1.444       .  S
C182        C183   1.407       .  A
C183        H186   1.084       .  S
C183        C184   1.404       .  A
C184        C187   1.444       .  S
C187        N189   1.157       .  T
C188        N190   1.157       .  T
C191        C192   1.407       .  A
C191        C196   1.416       .  A
C192        H197   1.085       .  S
C192        C193   1.398       .  A
C193        C194   1.415       .  A
C193        C200   1.445       .  S
C194        C195   1.405       .  A
C195        H198   1.085       .  S
C195        C196   1.397       .  A
C196        C199   1.441       .  S
C199        N201   1.157       .  T
C200        N202   1.157       .  T
C203        C204   1.405       .  A
C203        C208   1.419       .  A
C204        H209   1.084       .  S
C204        C205   1.396       .  A
C205        C206   1.415       .  A
C205        C212   1.443       .  S
C206        C207   1.405       .  A
C207        H210   1.083       .  S
C207        C208   1.402       .  A
C208        C211   1.445       .  S
C211        N213   1.158       .  T
C212        N214   1.157   1_545  T
C215        C216   1.407       .  A
C215        C220   1.412       .  A
C216        H221   1.084       .  S
C216        C217   1.404       .  A
C217        C218   1.411       .  A
C217        C224   1.444       .  S
C218        C219   1.404       .  A
C219        H222   1.085       .  S
C219        C220   1.396       .  A
C220        C223   1.445       .  S
C223        N225   1.157       .  T
C224        N226   1.157       .  T
C227        C228   1.403       .  A
C227        C232   1.418       .  A
C228        H233   1.084       .  S
C228        C229   1.399       .  A
C229        C230   1.415       .  A
C229        C236   1.445       .  S
C230        C231   1.402       .  A
C231        H234   1.085       .  S
C231        C232   1.401       .  A
C232        C235   1.444       .  S
C235        N237   1.157       .  T
C236        N238   1.157       .  T
C239        C275   1.472       .  S
C239        C240   1.403       .  A
C239        C518   1.410       .  A
C240        H245   1.083       .  S
C240        C241   1.395       .  A
C241        C242   1.408       .  A
C241        C248   1.444       .  S
C242        C243   1.403       .  A
C243        H520   1.085       .  S
C243        C518   1.399       .  A
C244        C513   1.414   1_554  A
C244        C517   1.406   1_554  A
C244        C247   1.444       .  S
H246        C517   1.085   1_554  S
C247        N249   1.157       .  T
C248        N250   1.157       .  T
C251        C252   1.398       .  A
C251        C256   1.411       .  A
C252        H531   1.085       .  S
C252        C527   1.398       .  A
C253        C526   1.400       .  A
C253        C528   1.413       .  A
C253        C260   1.443       .  S
C254        C277   1.488       .  S
C254        C255   1.407       .  A
C254        C527   1.421       .  A
C255        H258   1.085       .  S
C255        C256   1.398       .  A
C256        C259   1.444       .  S
H257        C526   1.083       .  S
C259        N261   1.157       .  T
C260        N262   1.157       .  T
C263        C279   1.485       .  S
C263        C268   1.417       .  A
C263        C538   1.407       .  A
C264        H269   1.085   1_556  S
C264        C537   1.407       .  A
C264        C539   1.401       .  A
C265        C266   1.412       .  A
C265        C538   1.402       .  A
C265        C546   1.443       .  S
C266        C267   1.396       .  A
C267        H270   1.079       .  S
C267        C268   1.396       .  A
C268        C271   1.445       .  S
C271        N273   1.158       .  T
C272        C539   1.444       .  S
C272        N274   1.157       .  T
C275        N276   1.356       .  A
C275        N280   1.355       .  A
N276        C277   1.355       .  A
C277        N278   1.360       .  A
N278        C279   1.358       .  A
C279        N280   1.356       .  A
C281        N282   1.353       .  A
C281        N286   1.354       .  A
C281        C477   1.483       .  S
N282        C283   1.355       .  A
C283        N284   1.358       .  A
C283        C492   1.472       .  S
N284        C285   1.359       .  A
C285        N286   1.354       .  A
C285        C504   1.474       .  S
C287        N288   1.357       .  A
C287        N292   1.359       .  A
C287        C468   1.481       .  S
N288        C289   1.357       .  A
C289        N290   1.357       .  A
C289        C441   1.480       .  S
N290        C291   1.356       .  A
C291        N292   1.357       .  A
C291        C453   1.468       .  S
C293        N294   1.361       .  A
C293        N298   1.359       .  A
C293        C429   1.494       .  S
N294        C295   1.358       .  A
C295        N296   1.355       .  A
C295        C405   1.472       .  S
N296        C297   1.354       .  A
C297        N298   1.354       .  A
C297        C417   1.473       .  S
C299        N317   1.351       .  A
C299        C336   1.459       .  S
C299        C465   1.477       .  S
N300        N317   1.325       .  A
N300        N322   1.320       .  A
N300      Co1433   2.084   1_455  S
C301        N326   1.340       .  A
C301        C339   1.465       .  S
C301        H346   1.081       .  S
H302        C343   1.081       .  S
C303        C307   1.460       .  S
C303        H332   1.082       .  S
Co304       N870   2.071   1_545  S
Co304       N312   2.100       .  S
Co304       N344   2.086       .  S
Co304       N320   2.074       .  S
Co304     Cl1444   2.451   1_455  S
N305        C343   1.339       .  A
N305        N312   1.320       .  A
N305       Co306   2.075       .  S
Co306       N309   2.081       .  S
Co306       N326   2.084       .  S
Co306      N1409   2.077   1_455  S
Co306     Cl1444   2.442   1_455  S
C307       N1989   1.347       .  A
C307        C402   1.462       .  S
N308        N315   1.320       .  A
N308        N338   1.325       .  A
N308       Co341   2.083       .  S
N309       N1971   1.319   1_445  A
N310        C339   1.348       .  A
N310        N320   1.323       .  A
H311        C336   1.081       .  S
N312        N333   1.327       .  A
N313        N331   1.319       .  A
N313        N318   1.322       .  A
N313      Co1402   2.081       .  S
C314        N318   1.348       .  A
C314        C342   1.458       .  S
C314        C516   1.473       .  S
N315        C330   1.343       .  A
N315       Co337   2.100       .  S
C316        N344   1.341       .  A
C316       C1415   1.459   1_455  S
C316        H350   1.082       .  S
C319        N888   1.350   1_545  A
C319       C1412   1.457       .  S
C319        C392   1.462       .  S
N320        N326   1.318       .  A
N321        C347   1.341       .  A
N321        N323   1.318       .  A
N321       Co337   2.081       .  S
N322        C336   1.338       .  A
N322       Co852   2.080       .  S
N323        N351   1.322       .  A
N323       Co341   2.079       .  S
H324        C347   1.081       .  S
H325        C342   1.082   1_565  S
N327       N1953   1.320       .  A
N327       Co341   2.079       .  S
N328        N340   1.325       .  A
N328       N1988   1.320       .  A
N328       Co337   2.093       .  S
C329        N333   1.354       .  A
C329        C343   1.456       .  S
C329        C540   1.480       .  S
C330        C349   1.470       .  S
C330        H334   1.081       .  S
N331        C342   1.342       .  A
N331       Co889   2.079   1_545  S
C335        N351   1.350       .  A
C335        C347   1.463       .  S
C335        C456   1.480       .  S
Co337      N1396   2.088       .  S
Co337      Cl896   2.451       .  S
N338        C349   1.350       .  A
C339        C444   1.483       .  S
N340        C867   1.352       .  A
Co341       N879   2.077       .  S
Co341      Cl896   2.447       .  S
N344       N1972   1.321   1_445  A
N345       C1951   1.347   1_445  A
Cl348     Co1400   2.446       .  S
Cl348     Co1402   2.443       .  S
Cl348      Co885   2.449   1_545  S
Cl348      Co889   2.451   1_545  S
C349        C525   1.495       .  S
C352        N370   1.347       .  A
C352        C389   1.463       .  S
C352        C501   1.479       .  S
N353        N370   1.321       .  A
N353        N375   1.318       .  A
N353       Co390   2.068       .  S
C354        N379   1.339       .  A
C354        C940   1.456       .  S
C354        H399   1.082       .  S
H355        C396   1.081   1_655  S
C356        N380   1.338       .  A
C356        C360   1.458       .  S
C356        H385   1.081       .  S
Co357       N375   2.077       .  S
Co357       N913   2.091   1_545  S
Co357       N397   2.088       .  S
Co357       N373   2.078       .  S
Co357     Cl1497   2.444   1_455  S
N358        C396   1.339       .  A
N358        N365   1.319       .  A
N358      Co1455   2.075   1_455  S
Co359      N1454   2.075       .  S
Co359       N362   2.081       .  S
Co359       N379   2.071       .  S
Co359       N366   2.070       .  S
Co359      Cl949   2.443       .  S
C360        N398   1.351       .  A
C360        C489   1.477       .  S
N361       N2012   1.320       .  A
N361        N391   1.323       .  A
N361       Co394   2.079       .  S
N362        N380   1.318       .  A
N362        N398   1.322       .  A
N363       C1488   1.348   1_455  A
N363        N373   1.323       .  A
H364        C389   1.080       .  S
N365        N386   1.322       .  A
N365       Co905   2.084       .  S
N366        N384   1.318       .  A
N366        N371   1.321       .  A
C367        N371   1.347       .  A
C367        C395   1.465       .  S
C367        C420   1.482       .  S
N368        C383   1.338       .  A
N368       N2005   1.318   1_445  A
N368       Co390   2.076       .  S
C369        N397   1.342       .  A
C369        C372   1.459       .  S
C369        H403   1.082       .  S
C372        N393   1.348       .  A
C372        C408   1.473       .  S
N373       N2023   1.319   1_445  A
N374        C400   1.335       .  A
N374        N376   1.317       .  A
N374      Co1486   2.067       .  S
N375        C389   1.337       .  A
N376        N404   1.321       .  A
N376       Co942   2.066   1_545  S
H377        C400   1.081       .  S
H378        C395   1.081       .  S
N379       N2017   1.319       .  A
N380       Co394   2.068       .  S
N381        N393   1.322       .  A
N381        N397   1.321       .  A
N381       Co390   2.080       .  S
C382        N386   1.350       .  A
C382        C396   1.464       .  S
C382        C432   1.488       .  S
C383       C2046   1.457   1_445  S
C383        H387   1.082       .  S
N384        C395   1.340       .  A
N384       Co394   2.082       .  S
C388        N404   1.348       .  A
C388        C400   1.461       .  S
C388        C480   1.477       .  S
Co390      N1470   2.080   1_455  S
Co390     Cl1497   2.447   1_455  S
N391        C402   1.347       .  A
C392       N1459   1.350       .  A
C392        C902   1.457   1_545  S
Co394       N924   2.077       .  S
Co394      Cl949   2.447       .  S
Cl401     Co1453   2.448       .  S
Cl401      Co907   2.440   1_545  S
Cl401     Co1486   2.442       .  S
Cl401      Co942   2.448   1_545  S
C402       C2027   1.461       .  S
C405        C406   1.402       .  A
C405        C410   1.409       .  A
C406        H411   1.085       .  S
C406        C407   1.395       .  A
C407        C408   1.411       .  A
C407        C414   1.445       .  S
C408        C409   1.404       .  A
C409        H412   1.085       .  S
C409        C410   1.404       .  A
C410        C413   1.442       .  S
C413        N415   1.157       .  T
C414        N416   1.157       .  T
C417        C418   1.400       .  A
C417        C422   1.412       .  A
C418        H423   1.085       .  S
C418        C419   1.398       .  A
C419        C420   1.418       .  A
C419        C426   1.444       .  S
C420        C421   1.404       .  A
C421        H424   1.084       .  S
C421        C422   1.398       .  A
C422        C425   1.445       .  S
C425        N427   1.157       .  T
C426        N428   1.158       .  T
C429        C430   1.408       .  A
C429        C434   1.418       .  A
C430        H435   1.084       .  S
C430        C431   1.397       .  A
C431        C432   1.415       .  A
C431        C438   1.445       .  S
C432        C433   1.405       .  A
C433        H436   1.082       .  S
C433        C434   1.401       .  A
C434        C437   1.444       .  S
C437        N439   1.157       .  T
C438        N440   1.157       .  T
C441        C442   1.403       .  A
C441        C446   1.414       .  A
C442        H447   1.085       .  S
C442        C443   1.401       .  A
C443        C444   1.416       .  A
C443        C450   1.444       .  S
C444        C445   1.402       .  A
C445        H448   1.083       .  S
C445        C446   1.397       .  A
C446        C449   1.445       .  S
C449        N451   1.157       .  T
C450        N452   1.158       .  T
C453        C454   1.401       .  A
C453        C458   1.407       .  A
C454        H459   1.085       .  S
C454        C455   1.404       .  A
C455        C456   1.416       .  A
C455        C462   1.443       .  S
C456        C457   1.404       .  A
C457        H460   1.085       .  S
C457        C458   1.396       .  A
C458        C461   1.445       .  S
C461        N463   1.157       .  T
C462        N464   1.157       .  T
C465        C466   1.403       .  A
C465        C470   1.411       .  A
C466        H471   1.085       .  S
C466        C467   1.400       .  A
C467        C468   1.414       .  A
C467        C474   1.444       .  S
C468        C469   1.405       .  A
C469        H472   1.085       .  S
C469        C470   1.398       .  A
C470        C473   1.444       .  S
C473        N475   1.157       .  T
C474        N476   1.157       .  T
C477        C478   1.407       .  A
C477        C482   1.417       .  A
C478        H483   1.085       .  S
C478        C479   1.395       .  A
C479        C480   1.413       .  A
C479        C486   1.445       .  S
C480        C481   1.401       .  A
C481        H484   1.083       .  S
C481        C482   1.393       .  A
C482        C485   1.444       .  S
C485        N487   1.157       .  T
C486        N488   1.157   1_545  T
C489        C490   1.408       .  A
C489        C494   1.411       .  A
C490        H495   1.083       .  S
C490        C491   1.401       .  A
C491        C492   1.408       .  A
C491        C498   1.444       .  S
C492        C493   1.402       .  A
C493        H496   1.084       .  S
C493        C494   1.393       .  A
C494        C497   1.445       .  S
C497        N499   1.157       .  T
C498        N500   1.157       .  T
C501        C502   1.402       .  A
C501        C506   1.417       .  A
C502        H507   1.084       .  S
C502        C503   1.394       .  A
C503        C504   1.415       .  A
C503        C510   1.446       .  S
C504        C505   1.401       .  A
C505        H508   1.085       .  S
C505        C506   1.399       .  A
C506        C509   1.444       .  S
C509        N511   1.157       .  T
C510        N512   1.157       .  T
C513        C514   1.403       .  A
C514        H519   1.080       .  S
C514        C515   1.393       .  A
C515        C516   1.407       .  A
C515        C522   1.444       .  S
C516        C517   1.405       .  A
C518        C521   1.444       .  S
C521        N523   1.157       .  T
C522        N524   1.157       .  T
C525        C526   1.404       .  A
C525        C530   1.421       .  A
C527        C534   1.444       .  S
C528        C529   1.402       .  A
C529        H532   1.084   1_556  S
C529        C530   1.405       .  A
C530        C533   1.444   1_556  S
C533        N535   1.157       .  T
C534        N536   1.157       .  T
C537        C542   1.420       .  A
C538        H543   1.085       .  S
C539        C540   1.412       .  A
C540        C541   1.400       .  A
C541        H544   1.084       .  S
C541        C542   1.402       .  A
C542        C545   1.444       .  S
C545        N547   1.158       .  T
C546        N548   1.157       .  T
C549        N550   1.359       .  A
C549        N554   1.353       .  A
C549       C1061   1.488       .  S
N550        C551   1.356       .  A
C551        N552   1.358       .  A
C551       C1076   1.480       .  S
N552        C553   1.356       .  A
C553        N554   1.353       .  A
C553       C1085   1.465       .  S
C555        N556   1.358       .  A
C555        N560   1.358       .  A
C555        C751   1.491       .  S
N556        C557   1.359       .  A
C557        N558   1.357       .  A
C557        C766   1.483       .  S
N558        C559   1.357       .  A
C559        N560   1.354       .  A
C559        C778   1.479       .  S
C561        N562   1.351       .  A
C561        N566   1.361       .  A
C561        C742   1.487       .  S
N562        C563   1.351       .  A
C563        N564   1.360       .  A
C563        C715   1.468       .  S
N564        C565   1.360       .  A
C565        N566   1.361       .  A
C565        C727   1.482       .  S
C567        N568   1.360       .  A
C567        N572   1.358       .  A
C567        C703   1.492       .  S
N568        C569   1.357       .  A
C569        N570   1.356       .  A
C569        C679   1.472       .  S
N570        C571   1.356       .  A
C571        N572   1.354       .  A
C571        C691   1.480       .  S
C573        N591   1.353       .  A
C573        C610   1.462       .  S
C573        C739   1.486       .  S
N574        N591   1.324       .  A
N574        N596   1.319       .  A
N574      Co1707   2.091   1_455  S
C575        N600   1.336       .  A
C575        C613   1.466       .  S
C575        H620   1.080       .  S
H576        C617   1.080       .  S
C577        N875   1.340   1_554  A
C577        C581   1.459       .  S
C577        H606   1.082       .  S
Co578       N586   2.076       .  S
Co578       N618   2.066       .  S
Co578       N594   2.072       .  S
Co578     Cl1718   2.448   1_455  S
N579        C617   1.341       .  A
N579        N586   1.317       .  A
N579       Co580   2.077       .  S
Co580       N583   2.081       .  S
Co580       N600   2.080       .  S
Co580      N1683   2.073   1_455  S
Co580     Cl1718   2.441   1_455  S
C581       N1167   1.348   1_565  A
C581        C676   1.461       .  S
N582        N589   1.320       .  A
N582        N612   1.323       .  A
N582       Co615   2.073       .  S
N583       N1149   1.320   1_455  A
N583        N893   1.323       .  A
N584        C613   1.350       .  A
N584        N594   1.323       .  A
H585        C610   1.080   1_545  S
N586        N607   1.322       .  A
N587        N605   1.318       .  A
N587        N592   1.321       .  A
N587      Co1676   2.072       .  S
C588        N592   1.346       .  A
C588        C616   1.455       .  S
C588        C790   1.465       .  S
N589        C604   1.337       .  A
N589       Co611   2.081       .  S
C590        N618   1.337       .  A
C590       C1689   1.454   1_455  S
C590        H624   1.081       .  S
C593       C1686   1.453       .  S
C593        C666   1.460       .  S
N594        N600   1.317       .  A
N595        C621   1.345       .  A
N595        N597   1.317       .  A
N595       Co611   2.095       .  S
N596        C610   1.339       .  A
N597        N625   1.323       .  A
N597       Co615   2.083       .  S
H598        C621   1.077       .  S
H599        C616   1.080       .  S
N601        C851   1.339       .  A
N601       N1131   1.319   1_565  A
N601       Co615   2.078       .  S
N602        N614   1.324       .  A
N602       N1166   1.320   1_565  A
N602       Co611   2.086       .  S
C603        N607   1.350       .  A
C603        C617   1.463       .  S
C603        C814   1.481       .  S
C604        C623   1.461       .  S
C604        H608   1.082       .  S
N605        C616   1.339       .  A
C609        N625   1.353       .  A
C609        C621   1.473       .  S
C609        C730   1.501       .  S
Co611      N1670   2.092       .  S
N612        C623   1.348       .  A
C613        C718   1.483       .  S
N618       N1150   1.317   1_455  A
N619       C1129   1.348   1_455  A
N619        N857   1.324   1_554  A
Cl622     Co1674   2.448       .  S
Cl622     Co1676   2.437       .  S
C623        C799   1.475       .  S
C626        N644   1.348       .  A
C626        C663   1.460       .  S
C626        C775   1.477       .  S
N627        N644   1.322       .  A
N627        N649   1.319       .  A
N627       Co664   2.073       .  S
C628        N653   1.337       .  A
C628        H673   1.082       .  S
H629        C670   1.081   1_655  S
C630        N654   1.340       .  A
C630        C634   1.459       .  S
C630        H659   1.082       .  S
Co631       N649   2.081       .  S
Co631       N671   2.083       .  S
Co631       N647   2.078       .  S
Co631     Cl1771   2.444   1_455  S
N632        C670   1.336       .  A
N632        N639   1.318       .  A
N632      Co1729   2.068   1_455  S
Co633      N1728   2.069       .  S
Co633       N636   2.076       .  S
Co633       N653   2.070       .  S
Co633       N640   2.072       .  S
C634        N672   1.349       .  A
C634        C763   1.473       .  S
N635       N1190   1.320   1_565  A
N635        N665   1.323       .  A
N635       Co668   2.078       .  S
N636        N654   1.318       .  A
N636        N672   1.322       .  A
N637       C1762   1.349   1_455  A
N637        N647   1.322       .  A
H638        C663   1.081       .  S
N639        N660   1.323       .  A
N640        N658   1.319       .  A
N640        N645   1.322       .  A
C641        N645   1.348       .  A
C641        C669   1.460       .  S
C641        C694   1.476       .  S
N642        C657   1.342       .  A
N642       N1183   1.319   1_455  A
N642       Co664   2.085       .  S
C643        N671   1.343       .  A
C643        C646   1.461       .  S
C643        H677   1.082       .  S
C646        N667   1.348       .  A
C646        C682   1.473       .  S
N647       N1201   1.319   1_455  A
N648        C674   1.338       .  A
N648        N650   1.317       .  A
N648      Co1760   2.071       .  S
N649        C663   1.338       .  A
N650        N678   1.323       .  A
H651        C674   1.081       .  S
H652        C669   1.079       .  S
N653       N1195   1.319   1_565  A
N654       Co668   2.074       .  S
N655        N667   1.321       .  A
N655        N671   1.319       .  A
N655       Co664   2.078       .  S
C656        N660   1.352       .  A
C656        C670   1.462       .  S
C656        C706   1.486       .  S
C657       C1224   1.461       .  S
C657        H661   1.082       .  S
N658        C669   1.337       .  A
N658       Co668   2.079       .  S
C662        N678   1.351       .  A
C662        C674   1.462       .  S
C662        C754   1.486       .  S
Co664      N1744   2.068   1_455  S
Co664     Cl1771   2.444   1_455  S
N665        C676   1.348       .  A
C666       N1733   1.350       .  A
Cl675     Co1727   2.444       .  S
Cl675     Co1760   2.450       .  S
C676       C1205   1.459   1_565  S
C679        C680   1.401       .  A
C679        C684   1.411       .  A
C680        H685   1.085       .  S
C680        C681   1.394       .  A
C681        C682   1.411       .  A
C681        C688   1.445       .  S
C682        C683   1.404       .  A
C683        H686   1.085       .  S
C683        C684   1.405       .  A
C684        C687   1.444       .  S
C687        N689   1.157       .  T
C688        N690   1.157       .  T
C691        C692   1.404       .  A
C691        C696   1.416       .  A
C692        H697   1.085       .  S
C692        C693   1.398       .  A
C693        C694   1.413       .  A
C693        C700   1.444       .  S
C694        C695   1.401       .  A
C695        H698   1.085       .  S
C695        C696   1.397       .  A
C696        C699   1.445       .  S
C699        N701   1.157       .  T
C700        N702   1.157       .  T
C703        C704   1.409       .  A
C703        C708   1.417       .  A
C704        H709   1.084       .  S
C704        C705   1.398       .  A
C705        C706   1.413       .  A
C705        C712   1.445       .  S
C706        C707   1.405       .  A
C707        H710   1.082       .  S
C707        C708   1.398       .  A
C708        C711   1.445       .  S
C711        N713   1.157       .  T
C712        N714   1.157   1_565  T
C715        C716   1.399       .  A
C715        C720   1.411       .  A
C716        H721   1.085       .  S
C716        C717   1.402       .  A
C717        C718   1.418       .  A
C717        C724   1.444       .  S
C718        C719   1.403       .  A
C719        H722   1.082       .  S
C719        C720   1.393       .  A
C720        C723   1.446       .  S
C723        N725   1.157       .  T
C724        N726   1.157       .  T
C727        C728   1.402       .  A
C727        C732   1.408       .  A
C728        H733   1.085       .  S
C728        C729   1.409       .  A
C729        C730   1.422       .  A
C729        C736   1.441       .  S
C730        C731   1.409       .  A
C731        H734   1.084       .  S
C731        C732   1.399       .  A
C732        C735   1.445       .  S
C735        N737   1.157       .  T
C736        N738   1.157       .  T
C739        C740   1.404       .  A
C739        C744   1.414       .  A
C740        H745   1.085       .  S
C740        C741   1.400       .  A
C741        C742   1.418       .  A
C741        C748   1.445       .  S
C742        C743   1.402       .  A
C743        H746   1.085       .  S
C743        C744   1.398       .  A
C744        C747   1.438       .  S
C747        N749   1.155       .  T
C748        N750   1.157       .  T
C751        C752   1.406       .  A
C751        C756   1.417       .  A
C752        H757   1.083       .  S
C752        C753   1.395       .  A
C753        C754   1.413       .  A
C753        C760   1.444       .  S
C754        C755   1.406       .  A
C755        H758   1.083       .  S
C755        C756   1.401       .  A
C756        C759   1.445       .  S
C759        N761   1.158       .  T
C760        N762   1.157       .  T
C763        C764   1.402       .  A
C763        C768   1.408       .  A
C764        H769   1.085       .  S
C764        C765   1.400       .  A
C765        C766   1.416       .  A
C765        C772   1.444       .  S
C766        C767   1.406       .  A
C767        H770   1.084       .  S
C767        C768   1.398       .  A
C768        C771   1.445       .  S
C771        N773   1.157       .  T
C772        N774   1.157       .  T
C775        C776   1.402       .  A
C775        C780   1.414       .  A
C776        H781   1.085       .  S
C776        C777   1.397       .  A
C777        C778   1.416       .  A
C777        C784   1.445       .  S
C778        C779   1.403       .  A
C779        H782   1.084       .  S
C779        C780   1.398       .  A
C780        C783   1.444       .  S
C783        N785   1.157       .  T
C784        N786   1.157       .  T
C787        C823   1.465       .  S
C787        C788   1.401       .  A
C787       C1066   1.408       .  A
C788        H793   1.084       .  S
C788        C789   1.394       .  A
C789        C790   1.408       .  A
C789        C796   1.445       .  S
C790        C791   1.403       .  A
C791       H1068   1.085       .  S
C791       C1066   1.400       .  A
C792       C1061   1.420       .  A
C792       C1065   1.398       .  A
C792        C795   1.445       .  S
H794       C1065   1.083       .  S
C795        N797   1.158       .  T
C796        N798   1.157       .  T
C799        C800   1.399       .  A
C799        C804   1.413       .  A
C800       H1079   1.085       .  S
C800       C1075   1.395       .  A
C801       C1074   1.398       .  A
C801       C1076   1.416       .  A
C801        C808   1.445       .  S
C802        C825   1.483       .  S
C802       C1075   1.418       .  A
C802        C803   1.406       .  A
C803        H806   1.085       .  S
C803        C804   1.399       .  A
C804        C807   1.444       .  S
H805       C1074   1.085       .  S
C807        N809   1.157       .  T
C808        N810   1.157       .  T
C811        C827   1.478       .  S
C811       C1086   1.403       .  A
C811        C816   1.414       .  A
C812        H817   1.085   1_556  S
C812       C1085   1.398       .  A
C812       C1087   1.400       .  A
C813       C1086   1.402       .  A
C813        C814   1.415       .  A
C813       C1094   1.443       .  S
C814        C815   1.402       .  A
C815        H818   1.083       .  S
C815        C816   1.396       .  A
C816        C819   1.446       .  S
C819        N821   1.158       .  T
C820       C1087   1.442   1_554  S
C820        N822   1.158       .  T
C823        N824   1.354       .  A
C823        N828   1.354       .  A
N824        C825   1.356       .  A
C825        N826   1.360       .  A
N826        C827   1.358       .  A
C827        N828   1.356       .  A
C829        N830   1.355       .  A
C829        N834   1.356       .  A
C829       C1025   1.488       .  S
N830        C831   1.355       .  A
C831        N832   1.356       .  A
C831       C1040   1.473       .  S
N832        C833   1.359       .  A
C833        N834   1.355       .  A
C833       C1052   1.476       .  S
C835        N836   1.357       .  A
C835        N840   1.359       .  A
C835       C1016   1.484       .  S
N836        C837   1.357       .  A
C837        N838   1.357       .  A
C837        C989   1.474       .  S
N838        C839   1.356       .  A
C839        N840   1.355       .  A
C839       C1001   1.468       .  S
C841        N842   1.362       .  A
C841        N846   1.358       .  A
C841        C977   1.496       .  S
N842        C843   1.360       .  A
C843        N844   1.357       .  A
C843        C953   1.474       .  S
N844        C845   1.356       .  A
C845        N846   1.353       .  A
C845        C965   1.477       .  S
C847        N865   1.351       .  A
C847        C884   1.461       .  S
C847       C1013   1.482       .  S
N848        N865   1.324       .  A
N848        N870   1.318       .  A
N848      Co1981   2.083   1_455  S
C849        N874   1.336       .  A
C849        C887   1.462       .  S
C849        H894   1.080       .  S
H850        C891   1.077       .  S
C851        C855   1.458       .  S
C851        H880   1.082       .  S
Co852       N860   2.076       .  S
Co852       N892   2.075       .  S
Co852       N868   2.081       .  S
Co852     Cl1992   2.447   1_455  S
N853        C891   1.337       .  A
N853        N860   1.316       .  A
N853       Co854   2.064       .  S
Co854       N857   2.078       .  S
Co854       N874   2.077       .  S
Co854      N1957   2.063   1_455  S
Co854     Cl1992   2.439   1_455  S
C855       N1441   1.348   1_565  A
C855        C950   1.459   1_565  S
N856        N863   1.320       .  A
N856        N886   1.323       .  A
N856       Co889   2.078       .  S
N857       N1423   1.319   1_455  A
N858        C887   1.352       .  A
N858        N868   1.325       .  A
H859        C884   1.080   1_545  S
N860        N881   1.320       .  A
N861        N879   1.317       .  A
N861        N866   1.319       .  A
N861      Co1950   2.065       .  S
C862        N866   1.347       .  A
C862        C890   1.464       .  S
C862       C1064   1.480       .  S
N863        C878   1.338       .  A
N863       Co885   2.082       .  S
C864        N892   1.338       .  A
C864       C1963   1.456   1_455  S
C864        H898   1.082       .  S
C867       C1960   1.453       .  S
C867        C940   1.460       .  S
N868        N874   1.318       .  A
N869        C895   1.342       .  A
N869        N871   1.319       .  A
N869       Co885   2.082       .  S
N870        C884   1.337       .  A
N871        N899   1.322       .  A
N871       Co889   2.081       .  S
H872        C895   1.081       .  S
H873        C890   1.081       .  S
N875       N1405   1.320   1_565  A
N875       Co889   2.080       .  S
N876        N888   1.324       .  A
N876       N1440   1.319   1_565  A
N876       Co885   2.081       .  S
C877        N881   1.352       .  A
C877        C891   1.463       .  S
C877       C1088   1.482       .  S
C878        C897   1.461       .  S
C878        H882   1.082       .  S
N879        C890   1.340       .  A
C883        N899   1.350       .  A
C883        C895   1.461       .  S
C883       C1004   1.477       .  S
Co885      N1944   2.085       .  S
N886        C897   1.349       .  A
C887        C992   1.486       .  S
N892       N1424   1.319   1_455  A
N893       C1403   1.349   1_455  A
Cl896     Co1948   2.448       .  S
Cl896     Co1950   2.446       .  S
C897       C1073   1.479       .  S
C900        N918   1.346       .  A
C900        C937   1.462       .  S
C900       C1049   1.475       .  S
N901        N918   1.321       .  A
N901        N923   1.318       .  A
N901       Co938   2.064       .  S
C902        N927   1.339       .  A
C902        H947   1.082       .  S
H903        C944   1.081   1_655  S
C904        N928   1.339       .  A
C904        C908   1.460       .  S
C904        H933   1.081       .  S
Co905       N923   2.081       .  S
Co905       N945   2.091       .  S
Co905       N921   2.081       .  S
Co905     Cl2045   2.445   1_455  S
N906        C944   1.338       .  A
N906        N913   1.318       .  A
N906      Co2003   2.074   1_455  S
Co907      N2002   2.065       .  S
Co907       N910   2.085       .  S
Co907       N927   2.076       .  S
Co907       N914   2.074       .  S
C908        N946   1.351       .  A
C908       C1037   1.480       .  S
N909       N1464   1.320   1_565  A
N909        N939   1.323       .  A
N909       Co942   2.081       .  S
N910        N928   1.317       .  A
N910        N946   1.323       .  A
N911       C2036   1.349   1_455  A
N911        N921   1.322       .  A
H912        C937   1.081       .  S
N913        N934   1.324       .  A
N914        N932   1.318       .  A
N914        N919   1.323       .  A
C915        N919   1.349       .  A
C915        C943   1.463       .  S
C915        C968   1.483       .  S
N916        C931   1.339       .  A
N916       N1457   1.319   1_455  A
N916       Co938   2.078       .  S
C917        N945   1.344       .  A
C917        C920   1.463       .  S
C917        H951   1.082       .  S
C920        N941   1.349       .  A
C920        C956   1.482       .  S
N921       N1475   1.320   1_455  A
N922        C948   1.335       .  A
N922        N924   1.317       .  A
N922      Co2034   2.069       .  S
N923        C937   1.339       .  A
N924        N952   1.323       .  A
H925        C948   1.081       .  S
H926        C943   1.081       .  S
N927       N1469   1.320   1_565  A
N928       Co942   2.069       .  S
N929        N941   1.323       .  A
N929        N945   1.320       .  A
N929       Co938   2.083       .  S
C930        N934   1.353       .  A
C930        C944   1.463       .  S
C930        C980   1.490       .  S
C931       C1498   1.457   1_455  S
C931        H935   1.082       .  S
N932        C943   1.339       .  A
N932       Co942   2.082       .  S
C936        N952   1.351       .  A
C936        C948   1.461       .  S
C936       C1028   1.482       .  S
Co938      N2018   2.068   1_455  S
Co938     Cl2045   2.444   1_455  S
N939        C950   1.348   1_565  A
C940       N2007   1.350       .  A
Cl949     Co2001   2.444       .  S
Cl949     Co2034   2.445       .  S
C950       C1479   1.457       .  S
C953        C954   1.400       .  A
C953        C958   1.409       .  A
C954        H959   1.085       .  S
C954        C955   1.398       .  A
C955        C956   1.414       .  A
C955        C962   1.445       .  S
C956        C957   1.406       .  A
C957        H960   1.085       .  S
C957        C958   1.406       .  A
C958        C961   1.443       .  S
C961        N963   1.157       .  T
C962        N964   1.157       .  T
C965        C966   1.402       .  A
C965        C970   1.414       .  A
C966        H971   1.085       .  S
C966        C967   1.400       .  A
C967        C968   1.417       .  A
C967        C974   1.444       .  S
C968        C969   1.403       .  A
C969        H972   1.084       .  S
C969        C970   1.398       .  A
C970        C973   1.445       .  S
C973        N975   1.157       .  T
C974        N976   1.157       .  T
C977        C978   1.409       .  A
C977        C982   1.416       .  A
C978        H983   1.084       .  S
C978        C979   1.397       .  A
C979        C980   1.413       .  A
C979        C986   1.444       .  S
C980        C981   1.407       .  A
C981        H984   1.082       .  S
C981        C982   1.402       .  A
C982        C985   1.444       .  S
C985        N987   1.157       .  T
C986        N988   1.157   1_565  T
C989        C990   1.401       .  A
C989        C994   1.410       .  A
C990        H995   1.085       .  S
C990        C991   1.401       .  A
C991        C992   1.417       .  A
C991        C998   1.444       .  S
C992        C993   1.406       .  A
C993        H996   1.083       .  S
C993        C994   1.397       .  A
C994        C997   1.445       .  S
C997        N999   1.157       .  T
C998       N1000   1.157       .  T
C1001      C1002   1.402       .  A
C1001      C1006   1.408       .  A
C1002      H1007   1.085       .  S
C1002      C1003   1.404       .  A
C1003      C1004   1.414       .  A
C1003      C1010   1.444       .  S
C1004      C1005   1.403       .  A
C1005      H1008   1.085       .  S
C1005      C1006   1.395       .  A
C1006      C1009   1.445       .  S
C1009      N1011   1.157       .  T
C1010      N1012   1.157       .  T
C1013      C1014   1.406       .  A
C1013      C1018   1.413       .  A
C1014      H1019   1.085       .  S
C1014      C1015   1.400       .  A
C1015      C1016   1.414       .  A
C1015      C1022   1.445       .  S
C1016      C1017   1.405       .  A
C1017      H1020   1.085       .  S
C1017      C1018   1.397       .  A
C1018      C1021   1.443       .  S
C1021      N1023   1.157   1_565  T
C1022      N1024   1.157       .  T
C1025      C1026   1.408       .  A
C1025      C1030   1.418       .  A
C1026      H1031   1.084       .  S
C1026      C1027   1.398       .  A
C1027      C1028   1.413       .  A
C1027      C1034   1.444       .  S
C1028      C1029   1.403       .  A
C1029      H1032   1.082       .  S
C1029      C1030   1.396       .  A
C1030      C1033   1.445       .  S
C1033      N1035   1.157       .  T
C1034      N1036   1.157       .  T
C1037      C1038   1.408       .  A
C1037      C1042   1.412       .  A
C1038      H1043   1.084       .  S
C1038      C1039   1.402       .  A
C1039      C1040   1.409       .  A
C1039      C1046   1.444       .  S
C1040      C1041   1.401       .  A
C1041      H1044   1.085       .  S
C1041      C1042   1.394       .  A
C1042      C1045   1.443       .  S
C1045      N1047   1.156       .  T
C1046      N1048   1.157       .  T
C1049      C1050   1.401       .  A
C1049      C1054   1.415       .  A
C1050      H1055   1.085       .  S
C1050      C1051   1.396       .  A
C1051      C1052   1.416       .  A
C1051      C1058   1.445       .  S
C1052      C1053   1.402       .  A
C1053      H1056   1.085       .  S
C1053      C1054   1.397       .  A
C1054      C1057   1.445       .  S
C1057      N1059   1.157       .  T
C1058      N1060   1.157       .  T
C1061      C1062   1.405       .  A
C1062      H1067   1.084       .  S
C1062      C1063   1.394       .  A
C1063      C1064   1.414       .  A
C1063      C1070   1.445       .  S
C1064      C1065   1.403       .  A
C1066      C1069   1.444       .  S
C1069      N1071   1.157       .  T
C1070      N1072   1.157       .  T
C1073      C1074   1.402       .  A
C1073      C1078   1.415       .  A
C1075      C1082   1.444       .  S
C1076      C1077   1.404       .  A
C1077      H1080   1.085   1_556  S
C1077      C1078   1.399       .  A
C1078      C1081   1.444       .  S
C1081      N1083   1.157   1_556  T
C1082      N1084   1.157       .  T
C1085      C1090   1.408       .  A
C1086      H1091   1.085       .  S
C1087      C1088   1.420       .  A
C1088      C1089   1.405       .  A
C1089      H1092   1.084       .  S
C1089      C1090   1.392       .  A
C1090      C1093   1.445       .  S
C1093      N1095   1.157       .  T
C1094      N1096   1.157       .  T
C1097      N1098   1.357       .  A
C1097      N1102   1.356       .  A
C1097      C1609   1.470       .  S
N1098      C1099   1.355       .  A
C1099      N1100   1.360       .  A
C1099      C1624   1.490       .  S
N1100      C1101   1.359       .  A
C1101      N1102   1.356       .  A
C1101      C1633   1.484       .  S
C1103      N1104   1.355       .  A
C1103      N1108   1.357       .  A
C1103      C1299   1.487       .  S
N1104      C1105   1.355       .  A
C1105      N1106   1.356       .  A
C1105      C1314   1.474       .  S
N1106      C1107   1.356       .  A
C1107      N1108   1.354       .  A
C1107      C1326   1.476       .  S
C1109      N1110   1.353       .  A
C1109      N1114   1.358       .  A
C1109      C1290   1.482       .  S
N1110      C1111   1.356       .  A
C1111      N1112   1.358       .  A
C1111      C1263   1.476       .  S
N1112      C1113   1.358       .  A
C1113      N1114   1.357       .  A
C1113      C1275   1.480       .  S
C1115      N1116   1.362       .  A
C1115      N1120   1.358       .  A
C1115      C1251   1.494       .  S
N1116      C1117   1.361       .  A
C1117      N1118   1.356       .  A
C1117      C1227   1.474       .  S
N1118      C1119   1.353       .  A
C1119      N1120   1.352       .  A
C1119      C1239   1.469       .  S
C1121      N1139   1.352       .  A
C1121      C1158   1.462       .  S
C1121      C1287   1.483       .  S
N1122      N1139   1.325       .  A
N1122      N1144   1.320       .  A
C1123      N1148   1.335       .  A
C1123      C1161   1.462       .  S
C1123      H1168   1.081       .  S
H1124      C1165   1.081       .  S
C1125      N1423   1.340   1_554  A
C1125      C1129   1.460       .  S
C1125      H1154   1.082       .  S
Co1126     N1692   2.069   1_545  S
Co1126     N1134   2.084       .  S
Co1126     N1166   2.072       .  S
Co1126     N1142   2.070       .  S
N1127      C1165   1.341       .  A
N1127      N1134   1.319       .  A
N1127     Co1128   2.079       .  S
Co1128     N1131   2.074       .  S
Co1128     N1148   2.070       .  S
C1129      C1224   1.463   1_655  S
N1130      N1137   1.318       .  A
N1130      N1160   1.323       .  A
N1130     Co1163   2.075       .  S
N1131      N1441   1.323       .  A
N1132      C1161   1.349       .  A
N1132      N1142   1.323       .  A
H1133      C1158   1.081       .  S
N1134      N1155   1.322       .  A
N1135      N1153   1.318       .  A
N1135      N1140   1.320       .  A
C1136      N1140   1.346       .  A
C1136      C1164   1.460       .  S
C1136      C1338   1.471       .  S
N1137      C1152   1.338       .  A
N1137     Co1159   2.078       .  S
C1138      N1166   1.337       .  A
C1138      H1172   1.082       .  S
C1141      N1710   1.350   1_545  A
C1141      C1214   1.463       .  S
N1142      N1148   1.317       .  A
N1143      C1169   1.339       .  A
N1143      N1145   1.319       .  A
N1143     Co1159   2.079       .  S
N1144      C1158   1.338       .  A
N1144     Co1674   2.080       .  S
N1145      N1173   1.324       .  A
N1145     Co1163   2.088       .  S
H1146      C1169   1.082       .  S
H1147      C1164   1.081   1_565  S
N1149      C1399   1.338       .  A
N1149     Co1163   2.079       .  S
N1150      N1162   1.323       .  A
N1150     Co1159   2.077       .  S
C1151      N1155   1.350       .  A
C1151      C1165   1.460       .  S
C1151      C1362   1.476       .  S
C1152      C1171   1.463       .  S
C1152      H1156   1.081       .  S
N1153      C1164   1.343       .  A
N1153     Co1711   2.080   1_545  S
C1157      N1173   1.352       .  A
C1157      C1169   1.460       .  S
C1157      C1278   1.481       .  S
Co1159    Cl1718   2.443       .  S
N1160      C1171   1.349       .  A
C1161      C1266   1.479       .  S
N1162      C1689   1.349       .  A
Co1163     N1701   2.074       .  S
Co1163    Cl1718   2.446       .  S
N1167      N1405   1.323   1_554  A
Cl1170    Co1707   2.444       .  S
Cl1170    Co1711   2.453       .  S
C1171      C1347   1.482       .  S
C1174      N1192   1.349       .  A
C1174      C1211   1.460       .  S
C1174      C1323   1.478       .  S
N1175      N1192   1.323       .  A
N1175      N1197   1.319       .  A
N1175     Co1212   2.077       .  S
C1176      N1201   1.337       .  A
C1176      C1762   1.455       .  S
C1176      H1221   1.082       .  S
H1177      C1218   1.081       .  S
C1178      N1202   1.338       .  A
C1178      C1182   1.457       .  S
C1178      H1207   1.082       .  S
Co1179     N1197   2.077       .  S
Co1179     N1735   2.091   1_545  S
Co1179     N1219   2.088       .  S
Co1179     N1195   2.081       .  S
N1180      C1218   1.340       .  A
N1180      N1187   1.319       .  A
Co1181     N1184   2.079       .  S
Co1181     N1201   2.070       .  S
Co1181     N1188   2.072       .  S
Co1181    Cl1771   2.444       .  S
C1182      N1220   1.350       .  A
C1182      C1311   1.473       .  S
N1183      N1213   1.322       .  A
N1183     Co1216   2.077       .  S
N1184      N1202   1.319       .  A
N1184      N1220   1.322       .  A
N1185      N1195   1.323       .  A
H1186      C1211   1.081       .  S
N1187      N1208   1.323       .  A
N1187     Co1727   2.090       .  S
N1188      N1206   1.317       .  A
N1188      N1193   1.322       .  A
C1189      N1193   1.348       .  A
C1189      C1217   1.465       .  S
C1189      C1242   1.484       .  S
N1190      C1205   1.339       .  A
N1190     Co1212   2.082       .  S
C1191      N1219   1.342       .  A
C1191      C1194   1.458       .  S
C1191      H1225   1.082       .  S
C1194      N1215   1.349       .  A
C1194      C1230   1.474       .  S
N1196      C1222   1.336       .  A
N1196      N1198   1.317       .  A
N1197      C1211   1.338       .  A
N1198      N1226   1.321       .  A
N1198     Co1764   2.069   1_545  S
H1199      C1222   1.081       .  S
H1200      C1217   1.079       .  S
N1202     Co1216   2.071       .  S
N1203      N1215   1.323       .  A
N1203      N1219   1.321       .  A
N1203     Co1212   2.084       .  S
C1204      N1208   1.352       .  A
C1204      C1218   1.463       .  S
C1204      C1254   1.488       .  S
C1205      H1209   1.082       .  S
N1206      C1217   1.337       .  A
N1206     Co1216   2.077       .  S
C1210      N1226   1.349       .  A
C1210      C1222   1.463       .  S
C1210      C1302   1.481       .  S
N1213      C1224   1.347   1_655  A
C1214      C1724   1.458   1_545  S
Co1216     N1746   2.081       .  S
Co1216    Cl1771   2.444       .  S
Cl1223    Co1729   2.447   1_545  S
Cl1223    Co1764   2.446   1_545  S
C1227      C1228   1.403       .  A
C1227      C1232   1.409       .  A
C1228      H1233   1.085       .  S
C1228      C1229   1.398       .  A
C1229      C1230   1.411       .  A
C1229      C1236   1.445       .  S
C1230      C1231   1.403       .  A
C1231      H1234   1.085       .  S
C1231      C1232   1.403       .  A
C1232      C1235   1.442       .  S
C1235      N1237   1.157       .  T
C1236      N1238   1.157       .  T
C1239      C1240   1.399       .  A
C1239      C1244   1.410       .  A
C1240      H1245   1.084       .  S
C1240      C1241   1.400       .  A
C1241      C1242   1.418       .  A
C1241      C1248   1.444       .  S
C1242      C1243   1.404       .  A
C1243      H1246   1.081       .  S
C1243      C1244   1.395       .  A
C1244      C1247   1.446       .  S
C1247      N1249   1.157       .  T
C1248      N1250   1.157       .  T
C1251      C1252   1.408       .  A
C1251      C1256   1.416       .  A
C1252      H1257   1.084       .  S
C1252      C1253   1.395       .  A
C1253      C1254   1.412       .  A
C1253      C1260   1.444       .  S
C1254      C1255   1.408       .  A
C1255      H1258   1.083       .  S
C1255      C1256   1.404       .  A
C1256      C1259   1.444       .  S
C1259      N1261   1.157       .  T
C1260      N1262   1.157       .  T
C1263      C1264   1.403       .  A
C1263      C1268   1.414       .  A
C1264      H1269   1.085       .  S
C1264      C1265   1.402       .  A
C1265      C1266   1.416       .  A
C1265      C1272   1.444       .  S
C1266      C1267   1.401       .  A
C1267      H1270   1.082       .  S
C1267      C1268   1.392       .  A
C1268      C1271   1.446       .  S
C1271      N1273   1.157       .  T
C1272      N1274   1.158       .  T
C1275      C1276   1.405       .  A
C1275      C1280   1.411       .  A
C1276      H1281   1.085       .  S
C1276      C1277   1.399       .  A
C1277      C1278   1.412       .  A
C1277      C1284   1.445       .  S
C1278      C1279   1.406       .  A
C1279      H1282   1.084       .  S
C1279      C1280   1.401       .  A
C1280      C1283   1.444       .  S
C1283      N1285   1.157       .  T
C1284      N1286   1.157       .  T
C1287      C1288   1.405       .  A
C1287      C1292   1.412       .  A
C1288      H1293   1.085       .  S
C1288      C1289   1.403       .  A
C1289      C1290   1.415       .  A
C1289      C1296   1.444       .  S
C1290      C1291   1.401       .  A
C1291      H1294   1.085       .  S
C1291      C1292   1.393       .  A
C1292      C1295   1.438       .  S
C1295      N1297   1.155       .  T
C1296      N1298   1.157       .  T
C1299      C1300   1.407       .  A
C1299      C1304   1.417       .  A
C1300      H1305   1.084       .  S
C1300      C1301   1.395       .  A
C1301      C1302   1.414       .  A
C1301      C1308   1.444       .  S
C1302      C1303   1.404       .  A
C1303      H1306   1.082       .  S
C1303      C1304   1.396       .  A
C1304      C1307   1.445       .  S
C1307      N1309   1.157       .  T
C1308      N1310   1.157   1_545  T
C1311      C1312   1.404       .  A
C1311      C1316   1.410       .  A
C1312      H1317   1.084       .  S
C1312      C1313   1.399       .  A
C1313      C1314   1.411       .  A
C1313      C1320   1.445       .  S
C1314      C1315   1.404       .  A
C1315      H1318   1.085       .  S
C1315      C1316   1.396       .  A
C1316      C1319   1.444       .  S
C1319      N1321   1.157       .  T
C1320      N1322   1.157       .  T
C1323      C1324   1.402       .  A
C1323      C1328   1.415       .  A
C1324      H1329   1.085       .  S
C1324      C1325   1.397       .  A
C1325      C1326   1.415       .  A
C1325      C1332   1.445       .  S
C1326      C1327   1.402       .  A
C1327      H1330   1.085       .  S
C1327      C1328   1.398       .  A
C1328      C1331   1.444       .  S
C1331      N1333   1.157       .  T
C1332      N1334   1.157       .  T
C1335      C1371   1.479       .  S
C1335      C1336   1.401       .  A
C1335      C1614   1.415       .  A
C1336      H1341   1.080       .  S
C1336      C1337   1.393       .  A
C1337      C1338   1.409       .  A
C1337      C1344   1.444       .  S
C1338      C1339   1.403       .  A
C1339      H1616   1.085       .  S
C1339      C1614   1.403       .  A
C1340      C1609   1.410       .  A
C1340      C1613   1.401       .  A
C1340      C1343   1.444   1_556  S
H1342      C1613   1.085   1_554  S
C1343      N1345   1.157       .  T
C1344      N1346   1.157       .  T
C1347      C1348   1.402       .  A
C1347      C1352   1.416       .  A
C1348      H1627   1.084       .  S
C1348      C1623   1.397       .  A
C1349      C1622   1.401       .  A
C1349      C1624   1.421       .  A
C1349      C1356   1.444       .  S
C1350      C1373   1.481       .  S
C1350      C1623   1.415       .  A
C1350      C1351   1.404       .  A
C1351      H1354   1.085       .  S
C1351      C1352   1.400       .  A
C1352      C1355   1.444       .  S
H1353      C1622   1.085       .  S
C1355      N1357   1.157       .  T
C1356      N1358   1.157       .  T
C1359      C1375   1.484       .  S
C1359      C1634   1.406       .  A
C1359      C1364   1.418       .  A
C1360      H1365   1.085   1_556  S
C1360      C1633   1.405       .  A
C1360      C1635   1.400       .  A
C1361      C1634   1.402       .  A
C1361      C1362   1.413       .  A
C1361      C1642   1.444       .  S
C1362      C1363   1.399       .  A
C1363      H1366   1.084       .  S
C1363      C1364   1.396       .  A
C1364      C1367   1.445       .  S
C1367      N1369   1.157       .  T
C1368      C1635   1.443       .  S
C1368      N1370   1.157   1_556  T
C1371      N1372   1.360       .  A
C1371      N1376   1.354       .  A
N1372      C1373   1.358       .  A
C1373      N1374   1.359       .  A
N1374      C1375   1.358       .  A
C1375      N1376   1.355       .  A
C1377      N1378   1.360       .  A
C1377      N1382   1.360       .  A
C1377      C1573   1.495       .  S
N1378      C1379   1.360       .  A
C1379      N1380   1.358       .  A
C1379      C1588   1.485       .  S
N1380      C1381   1.355       .  A
C1381      N1382   1.356       .  A
C1381      C1600   1.478       .  S
C1383      N1384   1.359       .  A
C1383      N1388   1.361       .  A
C1383      C1564   1.491       .  S
N1384      C1385   1.357       .  A
C1385      N1386   1.355       .  A
C1385      C1537   1.474       .  S
N1386      C1387   1.355       .  A
C1387      N1388   1.356       .  A
C1387      C1549   1.467       .  S
C1389      N1390   1.362       .  A
C1389      N1394   1.360       .  A
C1389      C1525   1.493       .  S
N1390      C1391   1.358       .  A
C1391      N1392   1.354       .  A
C1391      C1501   1.470       .  S
N1392      C1393   1.354       .  A
C1393      N1394   1.354       .  A
C1393      C1513   1.476       .  S
C1395      N1413   1.354       .  A
C1395      C1432   1.465       .  S
C1395      C1561   1.490       .  S
N1396      N1413   1.324       .  A
N1396      N1418   1.319       .  A
C1397      N1422   1.340       .  A
C1397      C1435   1.466       .  S
C1397      H1442   1.081       .  S
H1398      C1439   1.081       .  S
C1399      C1403   1.457       .  S
C1399      H1428   1.082       .  S
Co1400     N1966   2.078   1_545  S
Co1400     N1408   2.087       .  S
Co1400     N1440   2.080       .  S
Co1400     N1416   2.074       .  S
N1401      C1439   1.339       .  A
N1401      N1408   1.319       .  A
N1401     Co1402   2.075       .  S
Co1402     N1405   2.081       .  S
Co1402     N1422   2.083       .  S
C1403      C1498   1.459       .  S
N1404      N1411   1.320       .  A
N1404      N1434   1.322       .  A
N1404     Co1437   2.073       .  S
N1406      C1435   1.348       .  A
N1406      N1416   1.322       .  A
H1407      C1432   1.078       .  S
N1408      N1429   1.325       .  A
N1409      N1427   1.320       .  A
N1409      N1414   1.322       .  A
C1410      N1414   1.347       .  A
C1410      C1438   1.455       .  S
C1410      C1612   1.467       .  S
N1411      C1426   1.343       .  A
N1411     Co1433   2.094       .  S
C1412      N1440   1.339       .  A
C1412      H1446   1.082       .  S
C1415      N1984   1.349   1_545  A
C1415      C1488   1.463       .  S
N1416      N1422   1.318       .  A
N1417      C1443   1.340       .  A
N1417      N1419   1.319       .  A
N1417     Co1433   2.077       .  S
N1418      C1432   1.338       .  A
N1418     Co1948   2.080       .  S
N1419      N1447   1.323       .  A
N1419     Co1437   2.085       .  S
H1420      C1443   1.081       .  S
H1421      C1438   1.082   1_565  S
N1423     Co1437   2.086       .  S
N1424      N1436   1.326       .  A
N1424     Co1433   2.090       .  S
C1425      N1429   1.352       .  A
C1425      C1439   1.459       .  S
C1425      C1636   1.480       .  S
C1426      C1445   1.463       .  S
C1426      H1430   1.082       .  S
N1427      C1438   1.340       .  A
N1427     Co1985   2.074   1_545  S
C1431      N1447   1.352       .  A
C1431      C1443   1.460       .  S
C1431      C1552   1.479       .  S
Co1433    Cl1992   2.450       .  S
N1434      C1445   1.347       .  A
C1435      C1540   1.485       .  S
N1436      C1963   1.351       .  A
Co1437     N1975   2.079       .  S
Co1437    Cl1992   2.448       .  S
Cl1444    Co1981   2.446   1_545  S
Cl1444    Co1985   2.451   1_545  S
C1445      C1621   1.477       .  S
C1448      N1466   1.351       .  A
C1448      C1485   1.466       .  S
C1448      C1597   1.491       .  S
N1449      N1466   1.325       .  A
N1449      N1471   1.318       .  A
N1449     Co1486   2.077       .  S
C1450      N1475   1.341       .  A
C1450      C2036   1.459       .  S
C1450      H1495   1.082       .  S
H1451      C1492   1.080       .  S
C1452      N1476   1.339       .  A
C1452      C1456   1.457       .  S
C1452      H1481   1.082       .  S
Co1453     N1471   2.090       .  S
Co1453     N2009   2.081   1_545  S
Co1453     N1493   2.086       .  S
Co1453     N1469   2.084       .  S
N1454      C1492   1.338       .  A
N1454      N1461   1.319       .  A
Co1455     N1458   2.092       .  S
Co1455     N1475   2.084       .  S
Co1455     N1462   2.080       .  S
Co1455    Cl2045   2.446       .  S
C1456      N1494   1.353       .  A
C1456      C1585   1.479       .  S
N1457      N1487   1.323       .  A
N1457     Co1490   2.077       .  S
N1458      N1476   1.319       .  A
N1458      N1494   1.326       .  A
N1459      N1469   1.324       .  A
H1460      C1485   1.080       .  S
N1461      N1482   1.324       .  A
N1461     Co2001   2.085       .  S
N1462      N1480   1.319       .  A
N1462      N1467   1.322       .  A
C1463      N1467   1.349       .  A
C1463      C1491   1.463       .  S
C1463      C1516   1.482       .  S
N1464      C1479   1.339       .  A
N1464     Co1486   2.077       .  S
C1465      N1493   1.345       .  A
C1465      C1468   1.463       .  S
C1465      H1499   1.082       .  S
C1468      N1489   1.347       .  A
C1468      C1504   1.478       .  S
N1470      C1496   1.341       .  A
N1470      N1472   1.317       .  A
N1471      C1485   1.340       .  A
N1472      N1500   1.323       .  A
N1472     Co2038   2.080   1_545  S
H1473      C1496   1.081       .  S
H1474      C1491   1.081       .  S
N1476     Co1490   2.073       .  S
N1477      N1489   1.320       .  A
N1477      N1493   1.319       .  A
N1477     Co1486   2.077       .  S
C1478      N1482   1.351       .  A
C1478      C1492   1.463       .  S
C1478      C1528   1.487       .  S
C1479      H1483   1.082       .  S
N1480      C1491   1.341       .  A
N1480     Co1490   2.081       .  S
C1484      N1500   1.350       .  A
C1484      C1496   1.466       .  S
C1484      C1576   1.490       .  S
N1487      C1498   1.349       .  A
C1488      C1998   1.459   1_545  S
Co1490     N2020   2.077       .  S
Co1490    Cl2045   2.450       .  S
Cl1497    Co2003   2.448   1_545  S
Cl1497    Co2038   2.444   1_545  S
C1501      C1502   1.399       .  A
C1501      C1506   1.409       .  A
C1502      H1507   1.086       .  S
C1502      C1503   1.393       .  A
C1503      C1504   1.414       .  A
C1503      C1510   1.445       .  S
C1504      C1505   1.406       .  A
C1505      H1508   1.084       .  S
C1505      C1506   1.406       .  A
C1506      C1509   1.442       .  S
C1509      N1511   1.157       .  T
C1510      N1512   1.157       .  T
C1513      C1514   1.400       .  A
C1513      C1518   1.414       .  A
C1514      H1519   1.085       .  S
C1514      C1515   1.397       .  A
C1515      C1516   1.416       .  A
C1515      C1522   1.444       .  S
C1516      C1517   1.405       .  A
C1517      H1520   1.084       .  S
C1517      C1518   1.400       .  A
C1518      C1521   1.445       .  S
C1521      N1523   1.158       .  T
C1522      N1524   1.157       .  T
C1525      C1526   1.408       .  A
C1525      C1530   1.416       .  A
C1526      H1531   1.084       .  S
C1526      C1527   1.397       .  A
C1527      C1528   1.413       .  A
C1527      C1534   1.443       .  S
C1528      C1529   1.406       .  A
C1529      H1532   1.083       .  S
C1529      C1530   1.401       .  A
C1530      C1533   1.444       .  S
C1533      N1535   1.157       .  T
C1534      N1536   1.157       .  T
C1537      C1538   1.400       .  A
C1537      C1542   1.411       .  A
C1538      H1543   1.085       .  S
C1538      C1539   1.399       .  A
C1539      C1540   1.418       .  A
C1539      C1546   1.444       .  S
C1540      C1541   1.405       .  A
C1541      H1544   1.082       .  S
C1541      C1542   1.398       .  A
C1542      C1545   1.444       .  S
C1545      N1547   1.157       .  T
C1546      N1548   1.158       .  T
C1549      C1550   1.401       .  A
C1549      C1554   1.408       .  A
C1550      H1555   1.085       .  S
C1550      C1551   1.404       .  A
C1551      C1552   1.416       .  A
C1551      C1558   1.444       .  S
C1552      C1553   1.403       .  A
C1553      H1556   1.085       .  S
C1553      C1554   1.394       .  A
C1554      C1557   1.445       .  S
C1557      N1559   1.157       .  T
C1558      N1560   1.158       .  T
C1561      C1562   1.406       .  A
C1561      C1566   1.416       .  A
C1562      H1567   1.085       .  S
C1562      C1563   1.401       .  A
C1563      C1564   1.416       .  A
C1563      C1570   1.445       .  S
C1564      C1565   1.406       .  A
C1565      H1568   1.084       .  S
C1565      C1566   1.399       .  A
C1566      C1569   1.442       .  S
C1569      N1571   1.157       .  T
C1570      N1572   1.157       .  T
C1573      C1574   1.407       .  A
C1573      C1578   1.418       .  A
C1574      H1579   1.084       .  S
C1574      C1575   1.398       .  A
C1575      C1576   1.415       .  A
C1575      C1582   1.443       .  S
C1576      C1577   1.406       .  A
C1577      H1580   1.083       .  S
C1577      C1578   1.403       .  A
C1578      C1581   1.444       .  S
C1581      N1583   1.157       .  T
C1582      N1584   1.157   1_545  T
C1585      C1586   1.404       .  A
C1585      C1590   1.410       .  A
C1586      H1591   1.084       .  S
C1586      C1587   1.401       .  A
C1587      C1588   1.415       .  A
C1587      C1594   1.445       .  S
C1588      C1589   1.407       .  A
C1589      H1592   1.085       .  S
C1589      C1590   1.401       .  A
C1590      C1593   1.444       .  S
C1593      N1595   1.157       .  T
C1594      N1596   1.157       .  T
C1597      C1598   1.406       .  A
C1597      C1602   1.419       .  A
C1598      H1603   1.083       .  S
C1598      C1599   1.399       .  A
C1599      C1600   1.411       .  A
C1599      C1606   1.445       .  S
C1600      C1601   1.402       .  A
C1601      H1604   1.085       .  S
C1601      C1602   1.404       .  A
C1602      C1605   1.444       .  S
C1605      N1607   1.158       .  T
C1606      N1608   1.157       .  T
C1609      C1610   1.402       .  A
C1610      H1615   1.084       .  S
C1610      C1611   1.393       .  A
C1611      C1612   1.407       .  A
C1611      C1618   1.444       .  S
C1612      C1613   1.404       .  A
C1614      C1617   1.444       .  S
C1617      N1619   1.157       .  T
C1618      N1620   1.157       .  T
C1621      C1622   1.399       .  A
C1621      C1626   1.412       .  A
C1623      C1630   1.443       .  S
C1624      C1625   1.406       .  A
C1625      H1628   1.085       .  S
C1625      C1626   1.398       .  A
C1626      C1629   1.444       .  S
C1629      N1631   1.157       .  T
C1630      N1632   1.157       .  T
C1633      C1638   1.417       .  A
C1634      H1639   1.085       .  S
C1635      C1636   1.414       .  A
C1636      C1637   1.400       .  A
C1637      H1640   1.082       .  S
C1637      C1638   1.399       .  A
C1638      C1641   1.445       .  S
C1641      N1643   1.158       .  T
C1642      N1644   1.157       .  T
C1645      N1646   1.360       .  A
C1645      N1650   1.355       .  A
C1645      C2157   1.488       .  S
N1646      C1647   1.357       .  A
C1647      N1648   1.357       .  A
C1647      C2172   1.479       .  S
N1648      C1649   1.356       .  A
C1649      N1650   1.354       .  A
C1649      C2181   1.477       .  S
C1651      N1652   1.357       .  A
C1651      N1656   1.357       .  A
C1651      C1847   1.489       .  S
N1652      C1653   1.358       .  A
C1653      N1654   1.357       .  A
C1653      C1862   1.478       .  S
N1654      C1655   1.355       .  A
C1655      N1656   1.353       .  A
C1655      C1874   1.476       .  S
C1657      N1658   1.357       .  A
C1657      N1662   1.360       .  A
C1657      C1838   1.490       .  S
N1658      C1659   1.356       .  A
C1659      N1660   1.357       .  A
C1659      C1811   1.478       .  S
N1660      C1661   1.357       .  A
C1661      N1662   1.356       .  A
C1661      C1823   1.468       .  S
C1663      N1664   1.362       .  A
C1663      N1668   1.359       .  A
C1663      C1799   1.496       .  S
N1664      C1665   1.360       .  A
C1665      N1666   1.356       .  A
C1665      C1775   1.477       .  S
N1666      C1667   1.355       .  A
C1667      N1668   1.353       .  A
C1667      C1787   1.479       .  S
C1669      N1687   1.354       .  A
C1669      C1706   1.462       .  S
C1669      C1835   1.488       .  S
N1670      N1687   1.324       .  A
N1670      N1692   1.317       .  A
C1671      N1696   1.337       .  A
C1671      C1709   1.462       .  S
C1671      H1716   1.081       .  S
H1672      C1713   1.080       .  S
C1673      N1971   1.339   1_554  A
C1673      C1677   1.457   1_655  S
C1673      H1702   1.082       .  S
Co1674     N1682   2.086       .  S
Co1674     N1714   2.072       .  S
Co1674     N1690   2.078       .  S
N1675      C1713   1.337       .  A
N1675      N1682   1.317       .  A
N1675     Co1676   2.069       .  S
Co1676     N1679   2.077       .  S
Co1676     N1696   2.076       .  S
C1677      C1772   1.460       .  S
N1678      N1685   1.320       .  A
N1678      N1708   1.323       .  A
N1678     Co1711   2.077       .  S
N1679      N1989   1.323       .  A
N1680      C1709   1.351       .  A
N1680      N1690   1.324       .  A
H1681      C1706   1.079   1_545  S
N1682      N1703   1.323       .  A
N1683      N1701   1.317       .  A
N1683      N1688   1.321       .  A
C1684      N1688   1.348       .  A
C1684      C1712   1.465       .  S
C1684      C1886   1.485       .  S
N1685      C1700   1.340       .  A
N1685     Co1707   2.085       .  S
C1686      N1714   1.337       .  A
C1686      H1720   1.082       .  S
C1689      C1762   1.455       .  S
N1690      N1696   1.317       .  A
N1691      C1717   1.341       .  A
N1691      N1693   1.320       .  A
N1691     Co1707   2.084       .  S
N1692      C1706   1.338       .  A
N1693      N1721   1.322       .  A
N1693     Co1711   2.078       .  S
H1694      C1717   1.081       .  S
H1695      C1712   1.081       .  S
N1697      C1947   1.340       .  A
N1697     Co1711   2.079       .  S
N1698      N1710   1.324       .  A
N1698     Co1707   2.083       .  S
C1699      N1703   1.354       .  A
C1699      C1713   1.460       .  S
C1699      C1910   1.483       .  S
C1700      C1719   1.462       .  S
C1700      H1704   1.082       .  S
N1701      C1712   1.339       .  A
C1705      N1721   1.349       .  A
C1705      C1717   1.461       .  S
C1705      C1826   1.476       .  S
N1708      C1719   1.348       .  A
C1709      C1814   1.483       .  S
N1715      N1953   1.325   1_554  A
C1719      C1895   1.480       .  S
C1722      N1740   1.349       .  A
C1722      C1759   1.463       .  S
C1722      C1871   1.483       .  S
N1723      N1740   1.323       .  A
N1723      N1745   1.319       .  A
N1723     Co1760   2.074       .  S
C1724      N1749   1.340       .  A
C1724      H1769   1.082       .  S
H1725      C1766   1.081       .  S
C1726      N1750   1.337       .  A
C1726      C1730   1.454       .  S
C1726      H1755   1.082       .  S
Co1727     N1745   2.083       .  S
Co1727     N1767   2.084       .  S
Co1727     N1743   2.081       .  S
N1728      C1766   1.337       .  A
N1728      N1735   1.318       .  A
Co1729     N1732   2.092       .  S
Co1729     N1749   2.082       .  S
Co1729     N1736   2.075       .  S
C1730      N1768   1.353       .  A
C1730      C1859   1.476       .  S
N1731      N1761   1.323       .  A
N1731     Co1764   2.078       .  S
N1732      N1750   1.318       .  A
N1732      N1768   1.325       .  A
N1733      N1743   1.323       .  A
H1734      C1759   1.080       .  S
N1735      N1756   1.324       .  A
N1736      N1754   1.318       .  A
N1736      N1741   1.323       .  A
C1737      N1741   1.349       .  A
C1737      C1765   1.461       .  S
C1737      C1790   1.480       .  S
N1738      C1753   1.343       .  A
N1738     Co1760   2.089       .  S
C1739      N1767   1.343       .  A
C1739      C1742   1.460       .  S
C1739      H1773   1.082       .  S
C1742      N1763   1.350       .  A
C1742      C1778   1.474       .  S
N1744      C1770   1.336       .  A
N1744      N1746   1.317       .  A
N1745      C1759   1.338       .  A
N1746      N1774   1.323       .  A
H1747      C1770   1.081       .  S
H1748      C1765   1.080       .  S
N1750     Co1764   2.065       .  S
N1751      N1763   1.323       .  A
N1751      N1767   1.320       .  A
N1751     Co1760   2.085       .  S
C1752      N1756   1.353       .  A
C1752      C1766   1.462       .  S
C1752      C1802   1.490       .  S
C1753      H1757   1.082       .  S
N1754      C1765   1.338       .  A
N1754     Co1764   2.080       .  S
C1758      N1774   1.351       .  A
C1758      C1770   1.460       .  S
C1758      C1850   1.482       .  S
N1761      C1772   1.348   1_655  A
C1775      C1776   1.403       .  A
C1775      C1780   1.411       .  A
C1776      H1781   1.085       .  S
C1776      C1777   1.396       .  A
C1777      C1778   1.410       .  A
C1777      C1784   1.445       .  S
C1778      C1779   1.404       .  A
C1779      H1782   1.085       .  S
C1779      C1780   1.406       .  A
C1780      C1783   1.443       .  S
C1783      N1785   1.157       .  T
C1784      N1786   1.157       .  T
C1787      C1788   1.403       .  A
C1787      C1792   1.415       .  A
C1788      H1793   1.085       .  S
C1788      C1789   1.399       .  A
C1789      C1790   1.415       .  A
C1789      C1796   1.444       .  S
C1790      C1791   1.403       .  A
C1791      H1794   1.085       .  S
C1791      C1792   1.398       .  A
C1792      C1795   1.445       .  S
C1795      N1797   1.157       .  T
C1796      N1798   1.157       .  T
C1799      C1800   1.410       .  A
C1799      C1804   1.417       .  A
C1800      H1805   1.084       .  S
C1800      C1801   1.398       .  A
C1801      C1802   1.413       .  A
C1801      C1808   1.445       .  S
C1802      C1803   1.407       .  A
C1803      H1806   1.082       .  S
C1803      C1804   1.402       .  A
C1804      C1807   1.444       .  S
C1807      N1809   1.158       .  T
C1808      N1810   1.157   1_565  T
C1811      C1812   1.403       .  A
C1811      C1816   1.413       .  A
C1812      H1817   1.085       .  S
C1812      C1813   1.402       .  A
C1813      C1814   1.416       .  A
C1813      C1820   1.444       .  S
C1814      C1815   1.403       .  A
C1815      H1818   1.084       .  S
C1815      C1816   1.396       .  A
C1816      C1819   1.445       .  S
C1819      N1821   1.157       .  T
C1820      N1822   1.157       .  T
C1823      C1824   1.401       .  A
C1823      C1828   1.408       .  A
C1824      H1829   1.085       .  S
C1824      C1825   1.404       .  A
C1825      C1826   1.413       .  A
C1825      C1832   1.444       .  S
C1826      C1827   1.403       .  A
C1827      H1830   1.085       .  S
C1827      C1828   1.395       .  A
C1828      C1831   1.445       .  S
C1831      N1833   1.157       .  T
C1832      N1834   1.157       .  T
C1835      C1836   1.405       .  A
C1835      C1840   1.416       .  A
C1836      H1841   1.085       .  S
C1836      C1837   1.400       .  A
C1837      C1838   1.416       .  A
C1837      C1844   1.445       .  S
C1838      C1839   1.406       .  A
C1839      H1842   1.084       .  S
C1839      C1840   1.400       .  A
C1840      C1843   1.443       .  S
C1843      N1845   1.157   1_565  T
C1844      N1846   1.157       .  T
C1847      C1848   1.407       .  A
C1847      C1852   1.417       .  A
C1848      H1853   1.084       .  S
C1848      C1849   1.394       .  A
C1849      C1850   1.411       .  A
C1849      C1856   1.442       .  S
C1850      C1851   1.406       .  A
C1851      H1854   1.083       .  S
C1851      C1852   1.399       .  A
C1852      C1855   1.445       .  S
C1855      N1857   1.157       .  T
C1856      N1858   1.156       .  T
C1859      C1860   1.405       .  A
C1859      C1864   1.409       .  A
C1860      H1865   1.084       .  S
C1860      C1861   1.399       .  A
C1861      C1862   1.412       .  A
C1861      C1868   1.445       .  S
C1862      C1863   1.406       .  A
C1863      H1866   1.085       .  S
C1863      C1864   1.398       .  A
C1864      C1867   1.443       .  S
C1867      N1869   1.157       .  T
C1868      N1870   1.157       .  T
C1871      C1872   1.403       .  A
C1871      C1876   1.417       .  A
C1872      H1877   1.083       .  S
C1872      C1873   1.396       .  A
C1873      C1874   1.414       .  A
C1873      C1880   1.445       .  S
C1874      C1875   1.402       .  A
C1875      H1878   1.085       .  S
C1875      C1876   1.400       .  A
C1876      C1879   1.444       .  S
C1879      N1881   1.157       .  T
C1880      N1882   1.157       .  T
C1883      C1919   1.491       .  S
C1883      C1884   1.407       .  A
C1883      C2162   1.417       .  A
C1884      H1889   1.084       .  S
C1884      C1885   1.396       .  A
C1885      C1886   1.415       .  A
C1885      C1892   1.445       .  S
C1886      C1887   1.404       .  A
C1887      H2164   1.083       .  S
C1887      C2162   1.399       .  A
C1888      C2157   1.418       .  A
C1888      C2161   1.399       .  A
C1888      C1891   1.444       .  S
H1890      C2161   1.083       .  S
C1891      N1893   1.157       .  T
C1892      N1894   1.157       .  T
C1895      C1896   1.401       .  A
C1895      C1900   1.415       .  A
C1896      H2175   1.085       .  S
C1896      C2171   1.399       .  A
C1897      C2170   1.398       .  A
C1897      C2172   1.415       .  A
C1897      C1904   1.444       .  S
C1898      C1921   1.481       .  S
C1898      C2171   1.416       .  A
C1898      C1899   1.403       .  A
C1899      H1902   1.085       .  S
C1899      C1900   1.399       .  A
C1900      C1903   1.444       .  S
H1901      C2170   1.085       .  S
C1903      N1905   1.157       .  T
C1904      N1906   1.157       .  T
C1907      C1923   1.474       .  S
C1907      C2182   1.402       .  A
C1907      C1912   1.411       .  A
C1908      H1913   1.085       .  S
C1908      C2181   1.403       .  A
C1908      C2183   1.398       .  A
C1909      C2182   1.401       .  A
C1909      C1910   1.417       .  A
C1909      C2190   1.442       .  S
C1910      C1911   1.400       .  A
C1911      H1914   1.078       .  S
C1911      C1912   1.395       .  A
C1912      C1915   1.445       .  S
C1915      N1917   1.157       .  T
C1916      C2183   1.444       .  S
C1916      N1918   1.158       .  T
C1919      N1920   1.359       .  A
C1919      N1924   1.357       .  A
N1920      C1921   1.356       .  A
C1921      N1922   1.357       .  A
N1922      C1923   1.356       .  A
C1923      N1924   1.357       .  A
C1925      N1926   1.356       .  A
C1925      N1930   1.355       .  A
C1925      C2121   1.473       .  S
N1926      C1927   1.357       .  A
C1927      N1928   1.359       .  A
C1927      C2136   1.481       .  S
N1928      C1929   1.358       .  A
C1929      N1930   1.356       .  A
C1929      C2148   1.475       .  S
C1931      N1932   1.357       .  A
C1931      N1936   1.360       .  A
C1931      C2112   1.477       .  S
N1932      C1933   1.358       .  A
C1933      N1934   1.360       .  A
C1933      C2085   1.485       .  S
N1934      C1935   1.360       .  A
C1935      N1936   1.358       .  A
C1935      C2097   1.489       .  S
C1937      N1938   1.357       .  A
C1937      N1942   1.356       .  A
C1937      C2073   1.487       .  S
N1938      C1939   1.355       .  A
C1939      N1940   1.356       .  A
C1939      C2049   1.466       .  S
N1940      C1941   1.356       .  A
C1941      N1942   1.353       .  A
C1941      C2061   1.471       .  S
C1943      N1961   1.350       .  A
C1943      C1980   1.457       .  S
C1943      C2109   1.474       .  S
N1944      N1961   1.325       .  A
N1944      N1966   1.320       .  A
C1945      N1970   1.341       .  A
C1945      C1983   1.464       .  S
C1945      H1990   1.081       .  S
H1946      C1987   1.081       .  S
C1947      C1951   1.459       .  S
C1947      H1976   1.082       .  S
Co1948     N1956   2.083       .  S
Co1948     N1988   2.068       .  S
Co1948     N1964   2.081       .  S
N1949      C1987   1.336       .  A
N1949      N1956   1.319       .  A
N1949     Co1950   2.065       .  S
Co1950     N1953   2.084       .  S
Co1950     N1970   2.087       .  S
C1951      C2046   1.458       .  S
N1952      N1959   1.319       .  A
N1952      N1982   1.323       .  A
N1952     Co1985   2.075       .  S
N1954      C1983   1.350       .  A
N1954      N1964   1.325       .  A
H1955      C1980   1.082   1_545  S
N1956      N1977   1.323       .  A
N1957      N1975   1.317       .  A
N1957      N1962   1.318       .  A
C1958      N1962   1.345       .  A
C1958      C1986   1.467       .  S
C1958      C2160   1.483       .  S
N1959      C1974   1.339       .  A
N1959     Co1981   2.083       .  S
C1960      N1988   1.336       .  A
C1960      H1994   1.082       .  S
C1963      C2036   1.464       .  S
N1964      N1970   1.318       .  A
N1965      C1991   1.342       .  A
N1965      N1967   1.319       .  A
N1965     Co1981   2.082       .  S
N1966      C1980   1.338       .  A
N1967      N1995   1.323       .  A
N1967     Co1985   2.084       .  S
H1968      C1991   1.081       .  S
H1969      C1986   1.081       .  S
N1971     Co1985   2.076       .  S
N1972      N1984   1.324       .  A
N1972     Co1981   2.084       .  S
C1973      N1977   1.352       .  A
C1973      C1987   1.456       .  S
C1973      C2184   1.474       .  S
C1974      C1993   1.463       .  S
C1974      H1978   1.082       .  S
N1975      C1986   1.341       .  A
C1979      N1995   1.351       .  A
C1979      C1991   1.461       .  S
C1979      C2100   1.481       .  S
N1982      C1993   1.348       .  A
C1983      C2088   1.487       .  S
C1993      C2169   1.479       .  S
C1996      N2014   1.351       .  A
C1996      C2033   1.462       .  S
C1996      C2145   1.486       .  S
N1997      N2014   1.325       .  A
N1997      N2019   1.318       .  A
N1997     Co2034   2.079       .  S
C1998      N2023   1.340       .  A
C1998      H2043   1.082       .  S
H1999      C2040   1.080       .  S
C2000      N2024   1.337       .  A
C2000      C2004   1.455       .  S
C2000      H2029   1.081       .  S
Co2001     N2019   2.079       .  S
Co2001     N2041   2.082       .  S
Co2001     N2017   2.083       .  S
N2002      C2040   1.333       .  A
N2002      N2009   1.319       .  A
Co2003     N2006   2.086       .  S
Co2003     N2023   2.082       .  S
Co2003     N2010   2.077       .  S
C2004      N2042   1.352       .  A
C2004      C2133   1.476       .  S
N2005      N2035   1.323       .  A
N2005     Co2038   2.076       .  S
N2006      N2024   1.318       .  A
N2006      N2042   1.324       .  A
N2007      N2017   1.322       .  A
H2008      C2033   1.080       .  S
N2009      N2030   1.322       .  A
N2010      N2028   1.319       .  A
N2010      N2015   1.324       .  A
C2011      N2015   1.350       .  A
C2011      C2039   1.459       .  S
C2011      C2064   1.476       .  S
N2012      C2027   1.340       .  A
N2012     Co2034   2.083       .  S
C2013      N2041   1.342       .  A
C2013      C2016   1.460       .  S
C2013      H2047   1.082       .  S
C2016      N2037   1.348       .  A
C2016      C2052   1.474       .  S
N2018      C2044   1.336       .  A
N2018      N2020   1.319       .  A
N2019      C2033   1.336       .  A
N2020      N2048   1.323       .  A
H2021      C2044   1.082       .  S
H2022      C2039   1.079       .  S
N2024     Co2038   2.067       .  S
N2025      N2037   1.321       .  A
N2025      N2041   1.319       .  A
N2025     Co2034   2.078       .  S
C2026      N2030   1.351       .  A
C2026      C2040   1.460       .  S
C2026      C2076   1.481       .  S
C2027      H2031   1.082       .  S
N2028      C2039   1.333       .  A
N2028     Co2038   2.073       .  S
C2032      N2048   1.348       .  A
C2032      C2044   1.455       .  S
C2032      C2124   1.469       .  S
N2035      C2046   1.349       .  A
C2049      C2050   1.399       .  A
C2049      C2054   1.409       .  A
C2050      H2055   1.085       .  S
C2050      C2051   1.395       .  A
C2051      C2052   1.414       .  A
C2051      C2058   1.445       .  S
C2052      C2053   1.404       .  A
C2053      H2056   1.085       .  S
C2053      C2054   1.402       .  A
C2054      C2057   1.444       .  S
C2057      N2059   1.157       .  T
C2058      N2060   1.157       .  T
C2061      C2062   1.402       .  A
C2061      C2066   1.412       .  A
C2062      H2067   1.085       .  S
C2062      C2063   1.399       .  A
C2063      C2064   1.414       .  A
C2063      C2070   1.444       .  S
C2064      C2065   1.402       .  A
C2065      H2068   1.084       .  S
C2065      C2066   1.394       .  A
C2066      C2069   1.445       .  S
C2069      N2071   1.157       .  T
C2070      N2072   1.157       .  T
C2073      C2074   1.409       .  A
C2073      C2078   1.416       .  A
C2074      H2079   1.084       .  S
C2074      C2075   1.395       .  A
C2075      C2076   1.412       .  A
C2075      C2082   1.445       .  S
C2076      C2077   1.404       .  A
C2077      H2080   1.081       .  S
C2077      C2078   1.396       .  A
C2078      C2081   1.445       .  S
C2081      N2083   1.158       .  T
C2082      N2084   1.157   1_565  T
C2085      C2086   1.403       .  A
C2085      C2090   1.416       .  A
C2086      H2091   1.085       .  S
C2086      C2087   1.402       .  A
C2087      C2088   1.417       .  A
C2087      C2094   1.444       .  S
C2088      C2089   1.403       .  A
C2089      H2092   1.085       .  S
C2089      C2090   1.401       .  A
C2090      C2093   1.445       .  S
C2093      N2095   1.157       .  T
C2094      N2096   1.157       .  T
C2097      C2098   1.407       .  A
C2097      C2102   1.418       .  A
C2098      H2103   1.085       .  S
C2098      C2099   1.403       .  A
C2099      C2100   1.413       .  A
C2099      C2106   1.443       .  S
C2100      C2101   1.400       .  A
C2101      H2104   1.086       .  S
C2101      C2102   1.398       .  A
C2102      C2105   1.442       .  S
C2105      N2107   1.157       .  T
C2106      N2108   1.157       .  T
C2109      C2110   1.405       .  A
C2109      C2114   1.408       .  A
C2110      H2115   1.085       .  S
C2110      C2111   1.404       .  A
C2111      C2112   1.412       .  A
C2111      C2118   1.443       .  S
C2112      C2113   1.401       .  A
C2113      H2116   1.080       .  S
C2113      C2114   1.395       .  A
C2114      C2117   1.443       .  S
C2117      N2119   1.156       .  T
C2118      N2120   1.157       .  T
C2121      C2122   1.404       .  A
C2121      C2126   1.413       .  A
C2122      H2127   1.085       .  S
C2122      C2123   1.399       .  A
C2123      C2124   1.410       .  A
C2123      C2130   1.444       .  S
C2124      C2125   1.399       .  A
C2125      H2128   1.085       .  S
C2125      C2126   1.394       .  A
C2126      C2129   1.444       .  S
C2129      N2131   1.157       .  T
C2130      N2132   1.157       .  T
C2133      C2134   1.406       .  A
C2133      C2138   1.408       .  A
C2134      H2139   1.084       .  S
C2134      C2135   1.401       .  A
C2135      C2136   1.412       .  A
C2135      C2142   1.445       .  S
C2136      C2137   1.406       .  A
C2137      H2140   1.081       .  S
C2137      C2138   1.397       .  A
C2138      C2141   1.445       .  S
C2141      N2143   1.157       .  T
C2142      N2144   1.157       .  T
C2145      C2146   1.404       .  A
C2145      C2150   1.417       .  A
C2146      H2151   1.082       .  S
C2146      C2147   1.395       .  A
C2147      C2148   1.411       .  A
C2147      C2154   1.446       .  S
C2148      C2149   1.402       .  A
C2149      H2152   1.085       .  S
C2149      C2150   1.403       .  A
C2150      C2153   1.443       .  S
C2153      N2155   1.157       .  T
C2154      N2156   1.157       .  T
C2157      C2158   1.404       .  A
C2158      H2163   1.083       .  S
C2158      C2159   1.394       .  A
C2159      C2160   1.417       .  A
C2159      C2166   1.445       .  S
C2160      C2161   1.403       .  A
C2162      C2165   1.444       .  S
C2165      N2167   1.157       .  T
C2166      N2168   1.157   1_655  T
C2169      C2170   1.402       .  A
C2169      C2174   1.415       .  A
C2171      C2178   1.445       .  S
C2172      C2173   1.403       .  A
C2173      H2176   1.085   1_556  S
C2173      C2174   1.399       .  A
C2174      C2177   1.444       .  S
C2177      N2179   1.157   1_556  T
C2178      N2180   1.157       .  T
C2181      C2186   1.415       .  A
C2182      H2187   1.085       .  S
C2183      C2184   1.414       .  A
C2184      C2185   1.400       .  A
C2185      H2188   1.084       .  S
C2185      C2186   1.396       .  A
C2186      C2189   1.444       .  S
C2189      N2191   1.157       .  T
C2190      N2192   1.157       .  T
