geometry optimzed in LAMMPS
_audit_creation_date              2020-11-30 
_audit_creation_method            'lammps2cif' 
_symmetry_space_group_name_H-M    'P1' 
_symmetry_Int_Tables_number       1 
_symmetry_cell_setting            triclinic 
loop_ 
_symmetry_equiv_pos_as_xyz 
  x,y,z 
_cell_length_a                    43.88963863374135 
_cell_length_b                    43.426607294527095 
_cell_length_c                    44.07786693103479 
_cell_angle_alpha                 91.1401955549288 
_cell_angle_beta                  89.90325275607937 
_cell_angle_gamma                 90.31781636276838 
loop_ 
_atom_site_label 
_atom_site_type_symbol 
_atom_site_fract_x 
_atom_site_fract_y 
_atom_site_fract_z 
_atom_site_charge 
Zn1        Zn  0.20431141  0.49614211  0.25880691     1.49720
Zn2        Zn  0.24952040  0.49826775  0.20689732     1.49360
Zn3        Zn  0.25227438  0.04766986  0.25839427     1.49110
Zn4        Zn  0.27433038  0.47796657  0.27307427     1.49480
O5          O  0.24613080  0.00444619  0.25027059    -1.82720
O6          O  0.18426165  0.47260463  0.22609592    -0.73350
O7          O  0.27417533  0.03121595  0.18778091    -0.73170
O8          O  0.21555414  0.06846249  0.27813747    -0.72690
O9          O  0.21060266  0.48742609  0.18592070    -0.73360
O10         O  0.18028773  0.03229945  0.27244895    -0.72960
O11         O  0.27466013  0.06738791  0.22380223    -0.73550
O12         O  0.30487772  0.50722666  0.29728693    -0.72940
O13         O  0.27449999  0.46219647  0.19821799    -0.73690
O14         O  0.28375600  0.05275657  0.28878415    -0.73080
O15         O  0.29714069  0.44966395  0.24132959    -0.73550
O16         O  0.24826237  0.45091766  0.30253678    -0.73460
O17         O  0.20187732  0.46827386  0.29217844    -0.73250
C18         C  0.18919809  0.47193841  0.19784596     0.78540
C19         C  0.28423345  0.05666938  0.19840136     0.79030
C20         C  0.18868179  0.05832626  0.28308843     0.77990
C21         C  0.30409139  0.03666723  0.30093496     0.78370
C22         C  0.29335377  0.44611113  0.21255139     0.79500
C23         C  0.21935041  0.45116455  0.30699203     0.78550
Zn24       Zn  0.49924552  0.25675992  0.20597416     1.49720
Zn25       Zn  0.49696896  0.20968190  0.25444586     1.49360
Zn26       Zn  0.04960910  0.25744011  0.25415436     1.49110
Zn27       Zn  0.48090433  0.28092313  0.27525255     1.49480
O28         O  0.50605142  0.25225424  0.24870059    -1.82720
O29         O  0.47945093  0.22182306  0.18308152    -0.73350
O30         O  0.03095970  0.18726725  0.27433164    -0.73170
O31         O  0.06984416  0.27870361  0.21887890    -0.72690
O32         O  0.47517524  0.18888558  0.22028813    -0.73360
O33         O  0.03288127  0.27798997  0.18494986    -0.72960
O34         O  0.07009906  0.21926440  0.26967277    -0.73550
O35         O  0.51175745  0.30709055  0.30323888    -0.72940
O36         O  0.46579534  0.20745771  0.28445102    -0.73690
O37         O  0.05600870  0.28749918  0.28756905    -0.73080
O38         O  0.45132457  0.25321407  0.30231021    -0.73550
O39         O  0.45566479  0.30990197  0.24601607    -0.73460
O40         O  0.46886160  0.28731455  0.20273871    -0.73250
C41         C  0.46829517  0.19729713  0.19377824     0.78540
C42         C  0.05837174  0.19481103  0.28032405     0.79030
C43         C  0.05883959  0.28743860  0.19377093     0.77990
C44         C  0.04102742  0.30566925  0.30470451     0.78370
C45         C  0.44959700  0.22361554  0.30211950     0.79500
C46         C  0.45395240  0.30764302  0.21690412     0.78550
Zn47       Zn  0.25379961  0.20234492  0.49716477     1.49720
Zn48       Zn  0.20657044  0.25231484  0.49285669     1.49360
Zn49       Zn  0.24826427  0.25234337  0.04681805     1.49110
Zn50       Zn  0.27422801  0.27190735  0.48061442     1.49480
O51         O  0.24759243  0.24482521  0.50408556    -1.82720
O52         O  0.21757428  0.18258476  0.47768494    -0.73350
O53         O  0.18909396  0.28525957  0.02031523    -0.73170
O54         O  0.26858366  0.21782446  0.06873179    -0.72690
O55         O  0.18019462  0.21524043  0.48823669    -0.73360
O56         O  0.27357031  0.18258867  0.03177378    -0.72960
O57         O  0.20948450  0.26976156  0.06351416    -0.73550
O58         O  0.30253474  0.29488615  0.51338513    -0.72940
O59         O  0.20669916  0.26716145  0.45150319    -0.73690
O60         O  0.27705314  0.28517306  0.05561397    -0.73080
O61         O  0.24309330  0.30168353  0.45792353    -0.73550
O62         O  0.30018413  0.24285515  0.45049197    -0.73460
O63         O  0.28452906  0.19741793  0.46658911    -0.73250
C64         C  0.19008927  0.19114450  0.47482140     0.78540
C65         C  0.19177425  0.28733453  0.04898302     0.79030
C66         C  0.27986982  0.19292846  0.05814292     0.77990
C67         C  0.29928148  0.29772450  0.04240883     0.78370
C68         C  0.21667124  0.29396757  0.44733116     0.79500
C69         C  0.30080613  0.21316760  0.44909222     0.78550
Zn70       Zn  0.45034748  0.99740891  0.99614568     1.49720
Zn71       Zn  0.99992486  0.44828648  0.99871646     1.49360
Zn72       Zn  0.00237475  0.99810113  0.44976485     1.49110
Zn73       Zn  0.01730054  0.01895190  0.02036609     1.49480
O74         O  0.99344657  0.99147228  0.99174219    -1.82720
O75         O  0.42909154  0.46387750  0.01871989    -0.73350
O76         O  0.01478972  0.42339806  0.46236294    -0.73170
O77         O  0.46843312  0.02101094  0.42830078    -0.72690
O78         O  0.46629438  0.43038510  0.02405652    -0.73360
O79         O  0.43011655  0.01869811  0.46114583    -0.72960
O80         O  0.02174083  0.46087460  0.42957371    -0.73550
O81         O  0.04454997  0.04786990  0.99451886    -0.72940
O82         O  0.03435264  0.44537389  0.02622753    -0.73690
O83         O  0.03478110  0.02863999  0.44827434    -0.73080
O84         O  0.04506207  0.99154311  0.04651746    -0.73550
O85         O  0.98747080  0.04507139  0.04813878    -0.73460
O86         O  0.44543895  0.02841273  0.02685601    -0.73250
C87         C  0.44024927  0.44062876  0.03180730     0.78540
C88         C  0.02649265  0.43334935  0.43793026     0.79030
C89         C  0.44189274  0.02925959  0.43699278     0.77990
C90         C  0.04858283  0.04749580  0.46571895     0.78370
C91         C  0.04934267  0.46242556  0.04446118     0.79500
C92         C  0.45831916  0.04545046  0.04628124     0.78550
C93         C  0.37456952  0.37466169  0.12908238    -0.01080
C94         C  0.37794229  0.12967878  0.37033277    -0.01080
C95         C  0.13304139  0.37506602  0.37626027    -0.01080
C96         C  0.11708980  0.12547707  0.37983330    -0.01080
C97         C  0.37514735  0.12437107  0.12461418    -0.01080
C98         C  0.12318217  0.38100151  0.12097571    -0.01080
C99         C  0.07077011  0.44600173  0.06429372    -0.03930
C100        C  0.09175202  0.42578981  0.05070260    -0.01050
C101        C  0.10445965  0.40122073  0.06693159     0.03940
C102        C  0.10127448  0.40001120  0.09937422    -0.03930
C103        C  0.07900437  0.42090243  0.11260786    -0.01040
C104        C  0.06441573  0.44353231  0.09517395     0.03940
C105        C  0.10277397  0.43295093  0.02060589     0.38590
C106        C  0.06929171  0.41972161  0.14394986     0.38580
C107        C  0.04240803  0.46447561  0.10905124     0.37000
C108        C  0.11661177  0.37626378  0.04848446     0.37000
N109        N  0.02493436  0.48114566  0.12008104    -0.37820
N110        N  0.12482170  0.35665838  0.03232133    -0.37820
N111        N  0.05880174  0.42044500  0.16806014    -0.37260
N112        N  0.11171345  0.44032629  0.49713291    -0.37260
C113        C  0.39738355  0.10610532  0.10112586    -0.03930
C114        C  0.43027344  0.11015148  0.10007240    -0.01050
C115        C  0.44959029  0.08812989  0.08595575     0.03940
C116        C  0.43769981  0.06585894  0.06566781    -0.03930
C117        C  0.40534698  0.06528017  0.06154372    -0.01040
C118        C  0.38588986  0.08571778  0.07790275     0.03940
C119        C  0.44529442  0.13951533  0.10618365     0.38590
C120        C  0.39082578  0.04315457  0.04080631     0.38580
C121        C  0.35444548  0.08630612  0.06799419     0.37000
C122        C  0.48222075  0.08991457  0.09152466     0.37000
N123        N  0.33052290  0.08572940  0.05697550    -0.37820
N124        N  0.00811624  0.09154342  0.09625917    -0.37820
N125        N  0.37893564  0.02591795  0.02425494    -0.37260
N126        N  0.45868207  0.16238796  0.10947351    -0.37260
C127        C  0.06648929  0.07128818  0.44985837    -0.03930
C128        C  0.05046331  0.09070258  0.43065970    -0.01050
C129        C  0.06537746  0.10682523  0.40734006     0.03940
C130        C  0.09790310  0.10465241  0.40287537    -0.03930
C131        C  0.11389226  0.08634100  0.42495468    -0.01040
C132        C  0.09815409  0.06967650  0.44756281     0.03940
C133        C  0.01782181  0.09424453  0.43570868     0.38590
C134        C  0.14664120  0.08200760  0.42368653     0.38580
C135        C  0.11444466  0.04963124  0.46786771     0.37000
C136        C  0.04619576  0.12763754  0.39100860     0.37000
N137        N  0.12740598  0.03366975  0.98406939    -0.37820
N138        N  0.02992098  0.14440028  0.37921334    -0.37820
N139        N  0.17246940  0.07681672  0.42390333    -0.37260
N140        N  0.99202884  0.09673299  0.44052720    -0.37260
C141        C  0.10650431  0.39412702  0.39313997    -0.03930
C142        C  0.08394781  0.41119955  0.37683166    -0.01050
C143        C  0.05581304  0.41968453  0.39035609     0.03940
C144        C  0.05030270  0.41478715  0.42132667    -0.03930
C145        C  0.07319878  0.40009354  0.43815315    -0.01040
C146        C  0.10215765  0.39423358  0.42525474     0.03940
C147        C  0.09152558  0.42745098  0.34944900     0.38590
C148        C  0.06717216  0.39036196  0.46887977     0.38580
C149        C  0.12783815  0.39344998  0.44592315     0.37000
C150        C  0.03246773  0.43413518  0.37217551     0.37000
N151        N  0.14811386  0.39300103  0.46268120    -0.37820
N152        N  0.01391100  0.44562808  0.35768044    -0.37820
N153        N  0.06193050  0.38172221  0.99301595    -0.37260
N154        N  0.09628776  0.44254809  0.32859244    -0.37260
C155        C  0.42586794  0.05450174  0.42060364    -0.03930
C156        C  0.41440949  0.08019452  0.43696335    -0.01050
C157        C  0.39849690  0.10410940  0.42232085     0.03940
C158        C  0.39812624  0.10605554  0.38963850    -0.03930
C159        C  0.41395042  0.08120227  0.37371257    -0.01040
C160        C  0.42522501  0.05514249  0.38889634     0.03940
C161        C  0.42051131  0.08325898  0.46927556     0.38590
C162        C  0.42086489  0.08233698  0.34153522     0.38580
C163        C  0.43638793  0.02866922  0.37159949     0.37000
C164        C  0.38116949  0.12405600  0.44257935     0.37000
N165        N  0.44508657  0.50747914  0.35787513    -0.37820
N166        N  0.36753530  0.13835599  0.46037450    -0.37820
N167        N  0.42814698  0.08189595  0.31628011    -0.37260
N168        N  0.42575425  0.08685723  0.49479849    -0.37260
C169        C  0.39313672  0.39900174  0.10923912    -0.03930
C170        C  0.42569148  0.40186318  0.10844268    -0.01050
C171        C  0.44068882  0.41403247  0.08275521     0.03940
C172        C  0.42400979  0.42727944  0.05875141    -0.03930
C173        C  0.39226994  0.43066845  0.06261038    -0.01040
C174        C  0.37716321  0.41784389  0.08790942     0.03940
C175        C  0.44456244  0.39714550  0.13491883     0.38590
C176        C  0.37421295  0.44487290  0.03909387     0.38580
C177        C  0.34468018  0.42339708  0.09000943     0.37000
C178        C  0.47374150  0.41260546  0.08151541     0.37000
N179        N  0.31908350  0.42968807  0.09013099    -0.37820
N180        N  0.00001736  0.41075033  0.08073231    -0.37820
N181        N  0.35959424  0.45587526  0.52040699    -0.37260
N182        N  0.46051901  0.39504785  0.15566656    -0.37260
C183        C  0.17480937  0.31119289  0.06612307    -0.03930
C184        C  0.18403387  0.34229216  0.06539684    -0.01050
C185        C  0.16960741  0.36481576  0.08431860     0.03940
C186        C  0.14527940  0.35632900  0.10442029    -0.03930
C187        C  0.14306062  0.32349930  0.10932037    -0.01040
C188        C  0.15355131  0.30210048  0.08760988     0.03940
C189        C  0.20843388  0.35107166  0.04492659     0.38590
C190        C  0.13961767  0.31027518  0.13909996     0.38580
C191        C  0.14473825  0.26980648  0.08944142     0.37000
C192        C  0.18154717  0.39584857  0.08316579     0.37000
N193        N  0.13773804  0.24415054  0.09096133    -0.37820
N194        N  0.19347352  0.41957149  0.08132388    -0.37820
N195        N  0.13894929  0.29769494  0.16201133    -0.37260
N196        N  0.22786455  0.35794627  0.02857455    -0.37260
C197        C  0.19543111  0.31591152  0.43184123    -0.03930
C198        C  0.20653175  0.34064005  0.41526330    -0.01050
C199        C  0.18627078  0.36280351  0.40417325     0.03940
C200        C  0.15415288  0.35617145  0.39978128    -0.03930
C201        C  0.14283931  0.33258626  0.41933890    -0.01040
C202        C  0.16317925  0.31331999  0.43543171     0.03940
C203        C  0.23908948  0.34461809  0.41073736     0.38590
C204        C  0.11031455  0.32799424  0.42422162     0.38580
C205        C  0.15029631  0.29107278  0.45613766     0.37000
C206        C  0.19805496  0.39396727  0.40683197     0.37000
N207        N  0.13957972  0.27350880  0.47249783    -0.37820
N208        N  0.20901173  0.41804943  0.41062807    -0.37820
N209        N  0.08459567  0.32379535  0.42846827    -0.37260
N210        N  0.26499624  0.34780679  0.40688551    -0.37260
C211        C  0.35678031  0.15242140  0.39048735    -0.03930
C212        C  0.32403351  0.15112049  0.39093073    -0.01050
C213        C  0.30750492  0.16779097  0.41295723     0.03940
C214        C  0.31980042  0.19475511  0.42690278    -0.03930
C215        C  0.35102889  0.20053168  0.42286203    -0.01040
C216        C  0.36971839  0.17852810  0.40729255     0.03940
C217        C  0.30527724  0.13584750  0.36796906     0.38590
C218        C  0.36469451  0.22719628  0.43800502     0.38580
C219        C  0.40232186  0.18230596  0.41148500     0.37000
C220        C  0.27885011  0.15440324  0.42283348     0.37000
N221        N  0.42791551  0.18641623  0.41652073    -0.37820
N222        N  0.25711128  0.14199749  0.43123780    -0.37820
N223        N  0.37564845  0.24837948  0.45013013    -0.37260
N224        N  0.28925925  0.12454648  0.35004149    -0.37260
C225        C  0.34955556  0.14133284  0.10488285    -0.03930
C226        C  0.31701572  0.13513982  0.10793599    -0.01050
C227        C  0.29508946  0.15541991  0.09676161     0.03940
C228        C  0.30348617  0.17683037  0.07535299    -0.03930
C229        C  0.33424358  0.17924524  0.06640806    -0.01040
C230        C  0.35712516  0.16172049  0.08073728     0.03940
C231        C  0.30444856  0.10475276  0.11362072     0.38590
C232        C  0.34244537  0.20075247  0.04281803     0.38580
C233        C  0.38797285  0.16538089  0.06969106     0.37000
C234        C  0.26298779  0.15156383  0.10429936     0.37000
N235        N  0.41161704  0.16955334  0.05883063    -0.37820
N236        N  0.23746674  0.14835570  0.11015046    -0.37820
N237        N  0.34886361  0.21797354  0.02411425    -0.36860
N238        N  0.29265458  0.08100520  0.11601225    -0.37260
C239        C  0.35986581  0.34969555  0.10524317    -0.03930
C240        C  0.34386261  0.32256250  0.11452034    -0.01050
C241        C  0.32578356  0.30495195  0.09360244     0.03940
C242        C  0.32182472  0.31427692  0.06299818    -0.03930
C243        C  0.34029541  0.33833117  0.05288380    -0.01040
C244        C  0.36216677  0.35198781  0.07251962     0.03940
C245        C  0.34663926  0.31038964  0.14471412     0.38590
C246        C  0.33841073  0.34819083  0.02165225     0.38580
C247        C  0.39056069  0.35888608  0.05724991     0.37000
C248        C  0.31110173  0.27708324  0.10434205     0.37000
N249        N  0.41253578  0.36231529  0.04312113    -0.37820
N250        N  0.29945761  0.25524337  0.11365401    -0.37820
N251        N  0.33703000  0.35621770  0.49681201    -0.37260
N252        N  0.34819388  0.29790468  0.16762151    -0.37260
C253        C  0.17117661  0.17545632  0.45142475    -0.03930
C254        C  0.13993903  0.17061806  0.45496636    -0.01050
C255        C  0.12252400  0.15971428  0.42996928     0.03940
C256        C  0.13697399  0.14554943  0.40341077    -0.03930
C257        C  0.16968751  0.14826464  0.40290563    -0.01040
C258        C  0.18428347  0.16864491  0.42310064     0.03940
C259        C  0.12539969  0.17849557  0.48369863     0.38590
C260        C  0.19041147  0.12844843  0.38608255     0.38580
C261        C  0.21035034  0.18617905  0.41256002     0.37000
C262        C  0.09018060  0.16601524  0.43193678     0.37000
N263        N  0.23030660  0.20108642  0.40374420    -0.37820
N264        N  0.06505593  0.17326245  0.43541944    -0.37820
N265        N  0.20805197  0.11295499  0.37365088    -0.37260
N266        N  0.11383083  0.18468093  0.00661677    -0.37260
C267        C  0.06022479  0.32544536  0.32552280    -0.03930
C268        C  0.07271588  0.35280107  0.31406336    -0.01050
C269        C  0.10078761  0.36485522  0.32539231     0.03940
C270        C  0.11461914  0.35308500  0.35225092    -0.03930
C271        C  0.10513949  0.32246244  0.35867656    -0.01040
C272        C  0.07647679  0.31085896  0.34870143     0.03940
C273        C  0.05756777  0.36760947  0.28902453     0.38590
C274        C  0.12785127  0.29954557  0.36546963     0.38580
C275        C  0.06470270  0.28237673  0.36091205     0.37000
C276        C  0.11814444  0.38404532  0.30500477     0.37000
N277        N  0.05510034  0.25983579  0.37085204    -0.37820
N278        N  0.13155444  0.39884905  0.28790388    -0.37820
N279        N  0.14576212  0.28084263  0.37045026    -0.37260
N280        N  0.04548634  0.37940418  0.26907047    -0.37260
C281        C  0.07437189  0.31198810  0.17587769    -0.03930
C282        C  0.06919929  0.31410735  0.14441840    -0.01050
C283        C  0.08035994  0.33951107  0.12806816     0.03940
C284        C  0.10061675  0.36181210  0.14199520    -0.03930
C285        C  0.10157303  0.36176262  0.17456734    -0.01040
C286        C  0.09042214  0.33623123  0.19080434     0.03940
C287        C  0.05523210  0.28836687  0.12788741     0.38590
C288        C  0.10938673  0.38881843  0.19277400     0.38580
C289        C  0.09723993  0.33446008  0.22296330     0.37000
C290        C  0.07200755  0.34066827  0.09628314     0.37000
N291        N  0.10362081  0.33263515  0.24831248    -0.37820
N292        N  0.06381365  0.34043219  0.07133756    -0.37820
N293        N  0.11404943  0.40995309  0.20855841    -0.37260
N294        N  0.04421554  0.26792173  0.11461407    -0.37260
C295        C  0.43111135  0.20492729  0.32372501    -0.03930
C296        C  0.39936290  0.20357215  0.32222689    -0.01050
C297        C  0.38294947  0.17861819  0.33516605     0.03940
C298        C  0.39798007  0.15407224  0.35132392    -0.03930
C299        C  0.43076352  0.15736081  0.35355554    -0.01040
C300        C  0.44648144  0.18200837  0.33968858     0.03940
C301        C  0.38359694  0.22754753  0.30608260     0.38590
C302        C  0.44978315  0.13800294  0.37185860     0.38580
C303        C  0.47957704  0.18427871  0.34141112     0.37000
C304        C  0.35039042  0.17834050  0.32965441     0.37000
N305        N  0.50575650  0.18741276  0.34132879    -0.37820
N306        N  0.32484008  0.17989132  0.32347684    -0.37820
N307        N  0.46606394  0.12341850  0.38626904    -0.37260
N308        N  0.37108530  0.24679544  0.29336211    -0.37260
C309        C  0.07500846  0.17707773  0.30398801    -0.03930
C310        C  0.09140432  0.19307012  0.32688208    -0.01050
C311        C  0.10008654  0.17855567  0.35409971     0.03940
C312        C  0.09699318  0.14564621  0.35726879    -0.03930
C313        C  0.07995323  0.12999791  0.33337445    -0.01040
C314        C  0.06952391  0.14548733  0.30743516     0.03940
C315        C  0.10118306  0.22457776  0.32167858     0.38590
C316        C  0.07106855  0.09784962  0.33536529     0.38580
C317        C  0.05415724  0.12827432  0.28323445     0.37000
C318        C  0.11390374  0.19880783  0.37679680     0.37000
N319        N  0.04206524  0.11451780  0.26394166    -0.37820
N320        N  0.12475683  0.21644764  0.39367488    -0.37820
N321        N  0.06198982  0.07278360  0.33570371    -0.37260
N322        N  0.10965876  0.24922942  0.31665960    -0.37260
C323        C  0.43462657  0.32761190  0.19704786    -0.03930
C324        C  0.44135304  0.32863947  0.16559643    -0.01050
C325        C  0.41960694  0.33814482  0.14430674     0.03940
C326        C  0.39409152  0.35600261  0.15357796    -0.03930
C327        C  0.38663525  0.35369986  0.18585575    -0.01040
C328        C  0.40703912  0.34030403  0.20693141     0.03940
C329        C  0.47195466  0.32252276  0.15460718     0.38590
C330        C  0.35595670  0.35760806  0.19773784     0.38580
C331        C  0.39853697  0.33779741  0.23871544     0.37000
C332        C  0.42485585  0.32886929  0.11302645     0.37000
N333        N  0.39154502  0.33572553  0.26392811    -0.37820
N334        N  0.43102794  0.31914653  0.08919759    -0.37820
N335        N  0.33198193  0.35876691  0.20868798    -0.37260
N336        N  0.99627716  0.31863303  0.14530835    -0.37260
C337        C  0.39647933  0.14556640  0.14571254    -0.03930
C338        C  0.39766424  0.17869619  0.14554845    -0.01050
C339        C  0.42154924  0.19515535  0.16045913     0.03940
C340        C  0.44447010  0.17961295  0.17655679    -0.03930
C341        C  0.44198160  0.14762552  0.17969215    -0.01040
C342        C  0.41797221  0.13094521  0.16566564     0.03940
C343        C  0.37358155  0.19737904  0.13326268     0.38590
C344        C  0.46533333  0.13121288  0.19629491     0.38580
C345        C  0.41770884  0.09814988  0.17129328     0.37000
C346        C  0.42166953  0.22866572  0.16002546     0.37000
N347        N  0.41964915  0.07258600  0.17794025    -0.37820
N348        N  0.42133597  0.25529067  0.15944357    -0.37820
N349        N  0.48381182  0.11807399  0.20945240    -0.37260
N350        N  0.35486405  0.21388806  0.12498796    -0.37260
C351        C  0.20356213  0.43131808  0.32911772    -0.03930
C352        C  0.20120449  0.39952105  0.32379328    -0.01050
C353        C  0.17819781  0.38209675  0.33822383     0.03940
C354        C  0.15617116  0.39634846  0.35831848    -0.03930
C355        C  0.16080248  0.42872086  0.36509018    -0.01040
C356        C  0.18426008  0.44548773  0.35059617     0.03940
C357        C  0.22242151  0.38468292  0.30292006     0.38590
C358        C  0.14532885  0.44489870  0.38977304     0.38580
C359        C  0.19022424  0.47748687  0.35925301     0.37000
C360        C  0.17801941  0.34914837  0.33204879     0.37000
N361        N  0.19530005  0.00279366  0.36637257    -0.37820
N362        N  0.17893898  0.32310222  0.32610364    -0.37820
N363        N  0.13370613  0.45882920  0.40920626    -0.37260
N364        N  0.23944686  0.37271400  0.28650617    -0.37260
C365        C  0.30949532  0.07290131  0.18205784    -0.03930
C366        C  0.31322665  0.10490644  0.18531156    -0.01050
C367        C  0.33749198  0.12017816  0.17070942     0.03940
C368        C  0.35674786  0.10442419  0.14871020    -0.03930
C369        C  0.35486735  0.07138751  0.14856258    -0.01040
C370        C  0.33174659  0.05610032  0.16528704     0.03940
C371        C  0.29065358  0.12294144  0.20207159     0.38590
C372        C  0.37678608  0.05181954  0.13303120     0.38580
C373        C  0.33083039  0.02263183  0.16457079     0.37000
C374        C  0.34017736  0.15280288  0.17789051     0.37000
N375        N  0.33032257  0.99599943  0.16343656    -0.37820
N376        N  0.34046480  0.17830931  0.18603572    -0.37820
N377        N  0.39395372  0.03468694  0.12217842    -0.37260
N378        N  0.27268256  0.13739191  0.21518779    -0.37260
C379        C  0.32745387  0.05484713  0.31816162    -0.03930
C380        C  0.32623681  0.05678731  0.34976696    -0.01050
C381        C  0.34130005  0.08106450  0.36581972     0.03940
C382        C  0.35831105  0.10510504  0.35041402    -0.03930
C383        C  0.35970383  0.10167924  0.31778079    -0.01040
C384        C  0.34477122  0.07677636  0.30243598     0.03940
C385        C  0.30766992  0.03450052  0.36578401     0.38590
C386        C  0.37761126  0.12160835  0.29858184     0.38580
C387        C  0.34741589  0.07327016  0.26961820     0.37000
C388        C  0.33640572  0.08187805  0.39844252     0.37000
N389        N  0.34983859  0.07038090  0.24357783    -0.37820
N390        N  0.33086052  0.08139472  0.42411415    -0.37820
N391        N  0.39174692  0.13622803  0.28188966    -0.37260
N392        N  0.29279373  0.01681805  0.37848362    -0.37260
C393        C  0.13699793  0.10629013  0.35522226    -0.03930
C394        C  0.13456818  0.07337208  0.34999676    -0.01050
C395        C  0.14913430  0.05864985  0.32489662     0.03940
C396        C  0.16794976  0.07521102  0.30481050    -0.03930
C397        C  0.16945539  0.10729896  0.30813352    -0.01040
C398        C  0.15438189  0.12271951  0.33242798     0.03940
C399        C  0.11582187  0.05307774  0.36813042     0.38590
C400        C  0.18615663  0.12490549  0.28570774     0.38580
C401        C  0.15971397  0.15578468  0.33432082     0.37000
C402        C  0.14372042  0.02585482  0.31944610     0.37000
N403        N  0.16592838  0.18174053  0.33476159    -0.37820
N404        N  0.13880480  0.99994444  0.31499305    -0.37820
N405        N  0.19937466  0.13894514  0.26787614    -0.37260
N406        N  0.10114941  0.03540595  0.38112740    -0.37260
C407        C  0.31306173  0.42555593  0.19344333    -0.03930
C408        C  0.30025587  0.40679423  0.17013720    -0.01050
C409        C  0.31873467  0.39140462  0.14815481     0.03940
C410        C  0.35122566  0.39536667  0.14822010    -0.03930
C411        C  0.36278526  0.41852034  0.16936521    -0.01040
C412        C  0.34450488  0.43096507  0.19301547     0.03940
C413        C  0.26750496  0.40327952  0.16825796     0.38590
C414        C  0.39280982  0.43212291  0.16687898     0.38580
C415        C  0.35801122  0.45124996  0.21609069     0.37000
C416        C  0.30263725  0.37464593  0.12431117     0.37000
N417        N  0.36878003  0.46734579  0.23441731    -0.37820
N418        N  0.28789945  0.36278710  0.10566592    -0.37820
N419        N  0.41532667  0.44611001  0.16649309    -0.37260
N420        N  0.24158287  0.39999780  0.16515119    -0.37260
C421        C  0.14428584  0.40555988  0.13856417    -0.03930
C422        C  0.16520085  0.39646380  0.16155165    -0.01050
C423        C  0.17651773  0.41822513  0.18296749     0.03940
C424        C  0.17207176  0.44985389  0.17887281    -0.03930
C425        C  0.15614300  0.45989867  0.15378927    -0.01040
C426        C  0.14431738  0.43837283  0.13261322     0.03940
C427        C  0.17703588  0.36558843  0.16345627     0.38590
C428        C  0.15270602  0.49285947  0.14932011     0.38580
C429        C  0.13966925  0.45124189  0.10287612     0.37000
C430        C  0.19239548  0.40787797  0.20984192     0.37000
N431        N  0.13819302  0.46381344  0.08001896    -0.37820
N432        N  0.20493312  0.39970015  0.23126722    -0.37820
N433        N  0.15000088  0.01903203  0.14575555    -0.37260
N434        N  0.18946278  0.34239701  0.16631538    -0.37260
Zn435      Zn  0.20431141  0.49614211  0.75880687     1.49720
Zn436      Zn  0.24952041  0.49826774  0.70689729     1.49360
Zn437      Zn  0.25227438  0.04766986  0.75839432     1.49110
Zn438      Zn  0.27433037  0.47796655  0.77307425     1.49480
O439        O  0.24613080  0.00444619  0.75027064    -1.82720
O440        O  0.18426166  0.47260461  0.72609589    -0.73350
O441        O  0.27417533  0.03121595  0.68778095    -0.73170
O442        O  0.21555414  0.06846249  0.77813752    -0.72690
O443        O  0.21060267  0.48742607  0.68592067    -0.73360
O444        O  0.18028775  0.03229943  0.77244905    -0.72960
O445        O  0.27466013  0.06738791  0.72380228    -0.73550
O446        O  0.30487771  0.50722664  0.79728691    -0.72940
O447        O  0.27450000  0.46219647  0.69821797    -0.73690
O448        O  0.28375600  0.05275658  0.78878419    -0.73080
O449        O  0.29714068  0.44966393  0.74132957    -0.73550
O450        O  0.24826234  0.45091767  0.80253676    -0.73460
O451        O  0.20187730  0.46827389  0.79217842    -0.73250
C452        C  0.18919810  0.47193838  0.69784594     0.78540
C453        C  0.28423345  0.05666938  0.69840140     0.79030
C454        C  0.18868180  0.05832625  0.78308850     0.77990
C455        C  0.30409140  0.03666724  0.80093499     0.78370
C456        C  0.29335376  0.44611112  0.71255137     0.79500
C457        C  0.21935038  0.45116457  0.80699202     0.78550
Zn458      Zn  0.49924550  0.25675993  0.70597416     1.49720
Zn459      Zn  0.49696894  0.20968192  0.75444587     1.49360
Zn460      Zn  0.04960908  0.25744013  0.75415436     1.49110
Zn461      Zn  0.48090431  0.28092315  0.77525255     1.49480
O462        O  0.50605141  0.25225426  0.74870059    -1.82720
O463        O  0.47945091  0.22182307  0.68308153    -0.73350
O464        O  0.03095967  0.18726727  0.77433165    -0.73170
O465        O  0.06984414  0.27870362  0.71887890    -0.72690
O466        O  0.47517522  0.18888559  0.72028815    -0.73360
O467        O  0.03288125  0.27798998  0.68494986    -0.72960
O468        O  0.07009904  0.21926441  0.76967277    -0.73550
O469        O  0.51175744  0.30709057  0.80323887    -0.72940
O470        O  0.46579532  0.20745774  0.78445103    -0.73690
O471        O  0.05600869  0.28749920  0.78756904    -0.73080
O472        O  0.45132455  0.25321410  0.80231021    -0.73550
O473        O  0.45566478  0.30990199  0.74601606    -0.73460
O474        O  0.46886158  0.28731457  0.70273871    -0.73250
C475        C  0.46829515  0.19729714  0.69377825     0.78540
C476        C  0.05837172  0.19481104  0.78032406     0.79030
C477        C  0.05883957  0.28743860  0.69377093     0.77990
C478        C  0.04102741  0.30566927  0.80470451     0.78370
C479        C  0.44959698  0.22361557  0.80211951     0.79500
C480        C  0.45395238  0.30764304  0.71690412     0.78550
Zn481      Zn  0.25379960  0.20234495  0.99716477     1.49720
Zn482      Zn  0.20657045  0.25231489  0.99285670     1.49360
Zn483      Zn  0.24826427  0.25234335  0.54681805     1.49110
Zn484      Zn  0.27422802  0.27190739  0.98061443     1.49480
O485        O  0.24759244  0.24482525  0.00408556    -1.82720
O486        O  0.21757427  0.18258481  0.97768493    -0.73350
O487        O  0.18909394  0.28525952  0.52031522    -0.73170
O488        O  0.26858365  0.21782444  0.56873180    -0.72690
O489        O  0.18019462  0.21524048  0.98823670    -0.73360
O490        O  0.27357032  0.18258865  0.53177378    -0.72960
O491        O  0.20948449  0.26976153  0.56351416    -0.73550
O492        O  0.30253475  0.29488617  0.01338515    -0.72940
O493        O  0.20669918  0.26716150  0.95150319    -0.73690
O494        O  0.27705313  0.28517303  0.55561396    -0.73080
O495        O  0.24309331  0.30168358  0.95792354    -0.73550
O496        O  0.30018413  0.24285519  0.95049198    -0.73460
O497        O  0.28452905  0.19741797  0.96658911    -0.73250
C498        C  0.19008927  0.19114456  0.97482140     0.78540
C499        C  0.19177423  0.28733449  0.54898301     0.79030
C500        C  0.27986982  0.19292844  0.55814293     0.77990
C501        C  0.29928147  0.29772448  0.54240882     0.78370
C502        C  0.21667126  0.29396762  0.94733117     0.79500
C503        C  0.30080613  0.21316764  0.94909222     0.78550
Zn504      Zn  0.45034748  0.99740890  0.49614569     1.49720
Zn505      Zn  0.99992487  0.44828648  0.49871644     1.49360
Zn506      Zn  0.00237476  0.99810114  0.94976484     1.49110
Zn507      Zn  0.01730053  0.01895191  0.52036609     1.49480
O508        O  0.99344657  0.99147228  0.49174220    -1.82720
O509        O  0.42909155  0.46387750  0.51871987    -0.73350
O510        O  0.01478971  0.42339805  0.96236296    -0.73170
O511        O  0.46843313  0.02101096  0.92830077    -0.72690
O512        O  0.46629439  0.43038510  0.52405649    -0.73360
O513        O  0.43011656  0.01869812  0.96114581    -0.72960
O514        O  0.02174080  0.46087458  0.92957372    -0.73550
O515        O  0.04454997  0.04786989  0.49451886    -0.72940
O516        O  0.03435264  0.44537389  0.52622752    -0.73690
O517        O  0.03478110  0.02864001  0.94827434    -0.73080
O518        O  0.04506206  0.99154312  0.54651748    -0.73550
O519        O  0.98747079  0.04507141  0.54813877    -0.73460
O520        O  0.44543894  0.02841272  0.52685603    -0.73250
C521        C  0.44024927  0.44062876  0.53180728     0.78540
C522        C  0.02649263  0.43334933  0.93793028     0.79030
C523        C  0.44189275  0.02925960  0.93699277     0.77990
C524        C  0.04858283  0.04749582  0.96571895     0.78370
C525        C  0.04934268  0.46242556  0.54446116     0.79500
C526        C  0.45831916  0.04545047  0.54628124     0.78550
C527        C  0.37456951  0.37466169  0.62908236    -0.01080
C528        C  0.37794230  0.12967880  0.87033278    -0.01080
C529        C  0.13304137  0.37506604  0.87626028    -0.01080
C530        C  0.11708978  0.12547711  0.87983332    -0.01080
C531        C  0.37514735  0.12437106  0.62461421    -0.01080
C532        C  0.12318217  0.38100149  0.62097569    -0.01080
C533        C  0.07077012  0.44600172  0.56429370    -0.03930
C534        C  0.09175202  0.42578979  0.55070258    -0.01050
C535        C  0.10445965  0.40122071  0.56693157     0.03940
C536        C  0.10127448  0.40001119  0.59937420    -0.03930
C537        C  0.07900438  0.42090242  0.61260785    -0.01040
C538        C  0.06441573  0.44353230  0.59517393     0.03940
C539        C  0.10277397  0.43295092  0.52060587     0.38590
C540        C  0.06929172  0.41972160  0.64394984     0.38580
C541        C  0.04240804  0.46447561  0.60905123     0.37000
C542        C  0.11661177  0.37626376  0.54848444     0.37000
N543        N  0.02493438  0.48114566  0.62008103    -0.37820
N544        N  0.12482170  0.35665836  0.53232131    -0.37820
N545        N  0.05880174  0.42044499  0.66806012    -0.37260
N546        N  0.11171345  0.44032631  0.99713293    -0.37260
C547        C  0.39738354  0.10610531  0.60112588    -0.03930
C548        C  0.43027343  0.11015147  0.60007242    -0.01050
C549        C  0.44959028  0.08812987  0.58595577     0.03940
C550        C  0.43769980  0.06585895  0.56566781    -0.03930
C551        C  0.40534697  0.06528018  0.56154372    -0.01040
C552        C  0.38588985  0.08571777  0.57790278     0.03940
C553        C  0.44529441  0.13951531  0.60618367     0.38590
C554        C  0.39082577  0.04315461  0.54080627     0.38580
C555        C  0.35444546  0.08630609  0.56799425     0.37000
C556        C  0.48222074  0.08991455  0.59152470     0.37000
N557        N  0.33052287  0.08572934  0.55697558    -0.37820
N558        N  0.00811622  0.09154337  0.59625923    -0.37820
N559        N  0.37893564  0.02591802  0.52425487    -0.37260
N560        N  0.45868206  0.16238795  0.60947353    -0.37260
C561        C  0.06648928  0.07128821  0.94985838    -0.03930
C562        C  0.05046330  0.09070261  0.93065971    -0.01050
C563        C  0.06537745  0.10682527  0.90734008     0.03940
C564        C  0.09790308  0.10465246  0.90287540    -0.03930
C565        C  0.11389225  0.08634107  0.92495471    -0.01040
C566        C  0.09815408  0.06967655  0.94756284     0.03940
C567        C  0.01782179  0.09424455  0.93570869     0.38590
C568        C  0.14664120  0.08200768  0.92368658     0.38580
C569        C  0.11444465  0.04963131  0.96786775     0.37000
C570        C  0.04619575  0.12763757  0.89100861     0.37000
N571        N  0.12740598  0.03366968  0.48406934    -0.37820
N572        N  0.02992097  0.14440031  0.87921336    -0.37820
N573        N  0.17246940  0.07681683  0.92390338    -0.37260
N574        N  0.99202882  0.09673299  0.94052720    -0.37260
C575        C  0.10650428  0.39412703  0.89313998    -0.03930
C576        C  0.08394777  0.41119953  0.87683167    -0.01050
C577        C  0.05581299  0.41968450  0.89035610     0.03940
C578        C  0.05030268  0.41478713  0.92132668    -0.03930
C579        C  0.07319876  0.40009354  0.93815316    -0.01040
C580        C  0.10215764  0.39423359  0.92525475     0.03940
C581        C  0.09152552  0.42745095  0.84944899     0.38590
C582        C  0.06717216  0.39036197  0.96887979     0.38580
C583        C  0.12783814  0.39345002  0.94592315     0.37000
C584        C  0.03246767  0.43413513  0.87217553     0.37000
N585        N  0.14811386  0.39300108  0.96268120    -0.37820
N586        N  0.01391093  0.44562800  0.85768045    -0.37820
N587        N  0.06193049  0.38172220  0.49301593    -0.37260
N588        N  0.09628768  0.44254805  0.82859242    -0.37260
C589        C  0.42586795  0.05450175  0.92060364    -0.03930
C590        C  0.41440949  0.08019453  0.93696335    -0.01050
C591        C  0.39849691  0.10410941  0.92232086     0.03940
C592        C  0.39812624  0.10605557  0.88963851    -0.03930
C593        C  0.41395043  0.08120230  0.87371257    -0.01040
C594        C  0.42522502  0.05514252  0.88889633     0.03940
C595        C  0.42051130  0.08325898  0.96927557     0.38590
C596        C  0.42086490  0.08233702  0.84153522     0.38580
C597        C  0.43638794  0.02866925  0.87159948     0.37000
C598        C  0.38116950  0.12405602  0.94257936     0.37000
N599        N  0.44508655  0.50747910  0.85787514    -0.37820
N600        N  0.36753531  0.13835601  0.96037451    -0.37820
N601        N  0.42814700  0.08189600  0.81628011    -0.37260
N602        N  0.42575422  0.08685721  0.99479850    -0.37260
C603        C  0.39313671  0.39900173  0.60923909    -0.03930
C604        C  0.42569148  0.40186318  0.60844265    -0.01050
C605        C  0.44068882  0.41403247  0.58275519     0.03940
C606        C  0.42400979  0.42727943  0.55875138    -0.03930
C607        C  0.39226994  0.43066843  0.56261035    -0.01040
C608        C  0.37716321  0.41784388  0.58790938     0.03940
C609        C  0.44456243  0.39714552  0.63491881     0.38590
C610        C  0.37421296  0.44487287  0.53909382     0.38580
C611        C  0.34468017  0.42339706  0.59000939     0.37000
C612        C  0.47374150  0.41260547  0.58151539     0.37000
N613        N  0.31908349  0.42968805  0.59013094    -0.37820
N614        N  0.00001736  0.41075034  0.58073230    -0.37820
N615        N  0.35959423  0.45587530  0.02040705    -0.37260
N616        N  0.46051899  0.39504788  0.65566655    -0.37260
C617        C  0.17480936  0.31119285  0.56612305    -0.03930
C618        C  0.18403387  0.34229213  0.56539683    -0.01050
C619        C  0.16960740  0.36481573  0.58431858     0.03940
C620        C  0.14527939  0.35632897  0.60442027    -0.03930
C621        C  0.14306061  0.32349927  0.60932035    -0.01040
C622        C  0.15355129  0.30210045  0.58760986     0.03940
C623        C  0.20843388  0.35107162  0.54492658     0.38590
C624        C  0.13961766  0.31027515  0.63909994     0.38580
C625        C  0.14473822  0.26980645  0.58944140     0.37000
C626        C  0.18154717  0.39584854  0.58316577     0.37000
N627        N  0.13773801  0.24415052  0.59096131    -0.37820
N628        N  0.19347353  0.41957145  0.58132386    -0.37820
N629        N  0.13894927  0.29769491  0.66201131    -0.37260
N630        N  0.22786455  0.35794622  0.52857454    -0.37260
C631        C  0.19543112  0.31591157  0.93184125    -0.03930
C632        C  0.20653174  0.34064012  0.91526333    -0.01050
C633        C  0.18627076  0.36280357  0.90417328     0.03940
C634        C  0.15415287  0.35617148  0.89978129    -0.03930
C635        C  0.14283930  0.33258628  0.91933891    -0.01040
C636        C  0.16317926  0.31332001  0.93543171     0.03940
C637        C  0.23908947  0.34461820  0.91073743     0.38590
C638        C  0.11031455  0.32799425  0.92422163     0.38580
C639        C  0.15029633  0.29107279  0.95613765     0.37000
C640        C  0.19805491  0.39396733  0.90683199     0.37000
N641        N  0.13957973  0.27350881  0.97249782    -0.37820
N642        N  0.20901167  0.41804951  0.91062808    -0.37820
N643        N  0.08459567  0.32379536  0.92846829    -0.37260
N644        N  0.26499624  0.34780693  0.90688561    -0.37260
C645        C  0.35678031  0.15242142  0.89048736    -0.03930
C646        C  0.32403351  0.15112052  0.89093074    -0.01050
C647        C  0.30750492  0.16779100  0.91295723     0.03940
C648        C  0.31980042  0.19475514  0.92690279    -0.03930
C649        C  0.35102889  0.20053171  0.92286204    -0.01040
C650        C  0.36971839  0.17852812  0.90729257     0.03940
C651        C  0.30527724  0.13584752  0.86796907     0.38590
C652        C  0.36469452  0.22719630  0.93800504     0.38580
C653        C  0.40232186  0.18230597  0.91148502     0.37000
C654        C  0.27885010  0.15440330  0.92283346     0.37000
N655        N  0.42791551  0.18641624  0.91652076    -0.37820
N656        N  0.25711125  0.14199755  0.93123777    -0.37820
N657        N  0.37564845  0.24837950  0.95013015    -0.37260
N658        N  0.28925926  0.12454649  0.85004150    -0.37260
C659        C  0.34955555  0.14133283  0.60488288    -0.03930
C660        C  0.31701571  0.13513983  0.60793603    -0.01050
C661        C  0.29508946  0.15541992  0.59676165     0.03940
C662        C  0.30348617  0.17683035  0.57535300    -0.03930
C663        C  0.33424358  0.17924521  0.56640806    -0.01040
C664        C  0.35712515  0.16172047  0.58073729     0.03940
C665        C  0.30444854  0.10475277  0.61362078     0.38590
C666        C  0.34244536  0.20075242  0.54281801     0.38580
C667        C  0.38797284  0.16538086  0.56969107     0.37000
C668        C  0.26298779  0.15156386  0.60429941     0.37000
N669        N  0.41161703  0.16955330  0.55883064    -0.37820
N670        N  0.23746674  0.14835575  0.61015053    -0.37820
N671        N  0.34886361  0.21797347  0.52411422    -0.36860
N672        N  0.29265454  0.08100522  0.61601232    -0.37260
C673        C  0.35986580  0.34969554  0.60524315    -0.03930
C674        C  0.34386261  0.32256249  0.61452032    -0.01050
C675        C  0.32578355  0.30495194  0.59360242     0.03940
C676        C  0.32182472  0.31427691  0.56299817    -0.03930
C677        C  0.34029541  0.33833115  0.55288378    -0.01040
C678        C  0.36216677  0.35198780  0.57251959     0.03940
C679        C  0.34663928  0.31038963  0.64471410     0.38590
C680        C  0.33841073  0.34819080  0.52165223     0.38580
C681        C  0.39056069  0.35888607  0.55724989     0.37000
C682        C  0.31110173  0.27708323  0.60434204     0.37000
N683        N  0.41253577  0.36231528  0.54312110    -0.37820
N684        N  0.29945760  0.25524336  0.61365401    -0.37820
N685        N  0.33703000  0.35621773  0.99681204    -0.37260
N686        N  0.34819390  0.29790466  0.66762149    -0.37260
C687        C  0.17117660  0.17545638  0.95142475    -0.03930
C688        C  0.13993902  0.17061812  0.95496637    -0.01050
C689        C  0.12252398  0.15971433  0.92996929     0.03940
C690        C  0.13697398  0.14554949  0.90341078    -0.03930
C691        C  0.16968750  0.14826471  0.90290563    -0.01040
C692        C  0.18428345  0.16864499  0.92310063     0.03940
C693        C  0.12539969  0.17849563  0.98369864     0.38590
C694        C  0.19041146  0.12844851  0.88608254     0.38580
C695        C  0.21035032  0.18617913  0.91256001     0.37000
C696        C  0.09018059  0.16601528  0.93193680     0.37000
N697        N  0.23030658  0.20108650  0.90374419    -0.37820
N698        N  0.06505591  0.17326247  0.93541947    -0.37820
N699        N  0.20805196  0.11295507  0.87365087    -0.37260
N700        N  0.11383083  0.18468088  0.50661676    -0.37260
C701        C  0.06022478  0.32544538  0.82552280    -0.03930
C702        C  0.07271589  0.35280108  0.81406334    -0.01050
C703        C  0.10078762  0.36485523  0.82539230     0.03940
C704        C  0.11461914  0.35308501  0.85225092    -0.03930
C705        C  0.10513946  0.32246246  0.85867658    -0.01040
C706        C  0.07647677  0.31085899  0.84870144     0.03940
C707        C  0.05756779  0.36760947  0.78902450     0.38590
C708        C  0.12785123  0.29954558  0.86546965     0.38580
C709        C  0.06470266  0.28237677  0.86091207     0.37000
C710        C  0.11814446  0.38404533  0.80500476     0.37000
N711        N  0.05510028  0.25983583  0.87085207    -0.37820
N712        N  0.13155447  0.39884906  0.78790387    -0.37820
N713        N  0.14576208  0.28084264  0.87045028    -0.37260
N714        N  0.04548638  0.37940418  0.76907042    -0.37260
C715        C  0.07437187  0.31198810  0.67587768    -0.03930
C716        C  0.06919927  0.31410734  0.64441839    -0.01050
C717        C  0.08035993  0.33951106  0.62806815     0.03940
C718        C  0.10061675  0.36181209  0.64199518    -0.03930
C719        C  0.10157303  0.36176261  0.67456733    -0.01040
C720        C  0.09042213  0.33623122  0.69080432     0.03940
C721        C  0.05523207  0.28836687  0.62788740     0.38590
C722        C  0.10938673  0.38881842  0.69277398     0.38580
C723        C  0.09723995  0.33446007  0.72296328     0.37000
C724        C  0.07200754  0.34066826  0.59628312     0.37000
N725        N  0.10362084  0.33263514  0.74831246    -0.37820
N726        N  0.06381364  0.34043218  0.57133755    -0.37820
N727        N  0.11404944  0.40995308  0.70855839    -0.37260
N728        N  0.04421550  0.26792173  0.61461407    -0.37260
C729        C  0.43111134  0.20492733  0.82372502    -0.03930
C730        C  0.39936289  0.20357218  0.82222690    -0.01050
C731        C  0.38294946  0.17861821  0.83516606     0.03940
C732        C  0.39798007  0.15407227  0.85132393    -0.03930
C733        C  0.43076351  0.15736084  0.85355555    -0.01040
C734        C  0.44648143  0.18200841  0.83968860     0.03940
C735        C  0.38359692  0.22754755  0.80608261     0.38590
C736        C  0.44978315  0.13800298  0.87185861     0.38580
C737        C  0.47957703  0.18427877  0.84141115     0.37000
C738        C  0.35039041  0.17834051  0.82965441     0.37000
N739        N  0.50575649  0.18741283  0.84132883    -0.37820
N740        N  0.32484007  0.17989134  0.82347684    -0.37820
N741        N  0.46606394  0.12341854  0.88626906    -0.37260
N742        N  0.37108528  0.24679546  0.79336211    -0.37260
C743        C  0.07500844  0.17707775  0.80398802    -0.03930
C744        C  0.09140428  0.19307015  0.82688210    -0.01050
C745        C  0.10008652  0.17855571  0.85409972     0.03940
C746        C  0.09699316  0.14564625  0.85726881    -0.03930
C747        C  0.07995322  0.12999794  0.83337446    -0.01040
C748        C  0.06952389  0.14548736  0.80743517     0.03940
C749        C  0.10118301  0.22457779  0.82167859     0.38590
C750        C  0.07106854  0.09784964  0.83536531     0.38580
C751        C  0.05415723  0.12827434  0.78323447     0.37000
C752        C  0.11390370  0.19880788  0.87679681     0.37000
N753        N  0.04206524  0.11451782  0.76394167    -0.37820
N754        N  0.12475679  0.21644769  0.89367490    -0.37820
N755        N  0.06198983  0.07278362  0.83570372    -0.37260
N756        N  0.10965870  0.24922946  0.81665962    -0.37260
C757        C  0.43462656  0.32761191  0.69704785    -0.03930
C758        C  0.44135304  0.32863949  0.66559642    -0.01050
C759        C  0.41960694  0.33814483  0.64430673     0.03940
C760        C  0.39409152  0.35600262  0.65357794    -0.03930
C761        C  0.38663524  0.35369987  0.68585573    -0.01040
C762        C  0.40703910  0.34030404  0.70693139     0.03940
C763        C  0.47195466  0.32252279  0.65460718     0.38590
C764        C  0.35595668  0.35760805  0.69773781     0.38580
C765        C  0.39853695  0.33779742  0.73871542     0.37000
C766        C  0.42485586  0.32886930  0.61302644     0.37000
N767        N  0.39154500  0.33572554  0.76392809    -0.37820
N768        N  0.43102796  0.31914654  0.58919758    -0.37820
N769        N  0.33198190  0.35876689  0.70868794    -0.37260
N770        N  0.99627717  0.31863309  0.64530837    -0.37260
C771        C  0.39647933  0.14556639  0.64571256    -0.03930
C772        C  0.39766423  0.17869618  0.64554846    -0.01050
C773        C  0.42154922  0.19515535  0.66045914     0.03940
C774        C  0.44447009  0.17961295  0.67655680    -0.03930
C775        C  0.44198159  0.14762553  0.67969217    -0.01040
C776        C  0.41797220  0.13094521  0.66566566     0.03940
C777        C  0.37358154  0.19737903  0.63326269     0.38590
C778        C  0.46533332  0.13121289  0.69629493     0.38580
C779        C  0.41770884  0.09814988  0.67129330     0.37000
C780        C  0.42166951  0.22866572  0.66002546     0.37000
N781        N  0.41964915  0.07258600  0.67794026    -0.37820
N782        N  0.42133595  0.25529067  0.65944356    -0.37820
N783        N  0.48381181  0.11807401  0.70945243    -0.37260
N784        N  0.35486403  0.21388805  0.62498797    -0.37260
C785        C  0.20356209  0.43131811  0.82911771    -0.03930
C786        C  0.20120447  0.39952108  0.82379329    -0.01050
C787        C  0.17819781  0.38209677  0.83822385     0.03940
C788        C  0.15617113  0.39634848  0.85831848    -0.03930
C789        C  0.16080243  0.42872088  0.86509016    -0.01040
C790        C  0.18426002  0.44548777  0.85059614     0.03940
C791        C  0.22242151  0.38468294  0.80292009     0.38590
C792        C  0.14532878  0.44489873  0.88977301     0.38580
C793        C  0.19022415  0.47748692  0.85925295     0.37000
C794        C  0.17801942  0.34914839  0.83204884     0.37000
N795        N  0.19530020  0.00279358  0.86637269    -0.37820
N796        N  0.17893902  0.32310223  0.82610371    -0.37820
N797        N  0.13370604  0.45882924  0.90920621    -0.37260
N798        N  0.23944687  0.37271402  0.78650621    -0.37260
C799        C  0.30949532  0.07290131  0.68205788    -0.03930
C800        C  0.31322665  0.10490643  0.68531160    -0.01050
C801        C  0.33749198  0.12017815  0.67070946     0.03940
C802        C  0.35674785  0.10442418  0.64871023    -0.03930
C803        C  0.35486735  0.07138750  0.64856260    -0.01040
C804        C  0.33174659  0.05610031  0.66528707     0.03940
C805        C  0.29065360  0.12294144  0.70207165     0.38590
C806        C  0.37678607  0.05181954  0.63303123     0.38580
C807        C  0.33083038  0.02263182  0.66457081     0.37000
C808        C  0.34017737  0.15280287  0.67789054     0.37000
N809        N  0.33032255  0.99599943  0.66343657    -0.37820
N810        N  0.34046481  0.17830930  0.68603575    -0.37820
N811        N  0.39395370  0.03468694  0.62217844    -0.37260
N812        N  0.27268259  0.13739191  0.71518786    -0.37260
C813        C  0.32745388  0.05484714  0.81816165    -0.03930
C814        C  0.32623682  0.05678732  0.84976698    -0.01050
C815        C  0.34130006  0.08106452  0.86581974     0.03940
C816        C  0.35831105  0.10510506  0.85041403    -0.03930
C817        C  0.35970383  0.10167926  0.81778081    -0.01040
C818        C  0.34477123  0.07677637  0.80243601     0.03940
C819        C  0.30766993  0.03450053  0.86578404     0.38590
C820        C  0.37761125  0.12160837  0.79858185     0.38580
C821        C  0.34741590  0.07327017  0.76961822     0.37000
C822        C  0.33640572  0.08187808  0.89844254     0.37000
N823        N  0.34983860  0.07038090  0.74357785    -0.37820
N824        N  0.33086052  0.08139475  0.92411417    -0.37820
N825        N  0.39174690  0.13622805  0.78188967    -0.37260
N826        N  0.29279375  0.01681807  0.87848365    -0.37260
C827        C  0.13699791  0.10629016  0.85522229    -0.03930
C828        C  0.13456818  0.07337210  0.84999682    -0.01050
C829        C  0.14913434  0.05864986  0.82489671     0.03940
C830        C  0.16794977  0.07521102  0.80481056    -0.03930
C831        C  0.16945537  0.10729897  0.80813355    -0.01040
C832        C  0.15438186  0.12271953  0.83242799     0.03940
C833        C  0.11582186  0.05307778  0.86813048     0.38590
C834        C  0.18615657  0.12490548  0.78570773     0.38580
C835        C  0.15971393  0.15578471  0.83432080     0.37000
C836        C  0.14372051  0.02585481  0.81944625     0.37000
N837        N  0.16592832  0.18174056  0.83476155    -0.37820
N838        N  0.13880493  0.99994441  0.81499324    -0.37820
N839        N  0.19937457  0.13894512  0.76787610    -0.37260
N840        N  0.10114938  0.03540600  0.88112746    -0.37260
C841        C  0.31306173  0.42555592  0.69344331    -0.03930
C842        C  0.30025586  0.40679423  0.67013717    -0.01050
C843        C  0.31873466  0.39140462  0.64815478     0.03940
C844        C  0.35122566  0.39536667  0.64822007    -0.03930
C845        C  0.36278525  0.41852034  0.66936518    -0.01040
C846        C  0.34450488  0.43096506  0.69301544     0.03940
C847        C  0.26750495  0.40327953  0.66825793     0.38590
C848        C  0.39280980  0.43212293  0.66687894     0.38580
C849        C  0.35801122  0.45124994  0.71609067     0.37000
C850        C  0.30263724  0.37464592  0.62431114     0.37000
N851        N  0.36878003  0.46734576  0.73441730    -0.37820
N852        N  0.28789945  0.36278710  0.60566589    -0.37820
N853        N  0.41532664  0.44611004  0.66649303    -0.37260
N854        N  0.24158286  0.39999782  0.66515115    -0.37260
C855        C  0.14428585  0.40555986  0.63856414    -0.03930
C856        C  0.16520085  0.39646377  0.66155163    -0.01050
C857        C  0.17651774  0.41822510  0.68296747     0.03940
C858        C  0.17207177  0.44985387  0.67887278    -0.03930
C859        C  0.15614302  0.45989865  0.65378924    -0.01040
C860        C  0.14431739  0.43837281  0.63261319     0.03940
C861        C  0.17703587  0.36558840  0.66345625     0.38590
C862        C  0.15270605  0.49285945  0.64932007     0.38580
C863        C  0.13966926  0.45124186  0.60287609     0.37000
C864        C  0.19239548  0.40787795  0.70984190     0.37000
N865        N  0.13819304  0.46381342  0.58001893    -0.37820
N866        N  0.20493312  0.39970012  0.73126720    -0.37820
N867        N  0.15000083  0.01903205  0.64575563    -0.37260
N868        N  0.18946277  0.34239698  0.66631537    -0.37260
Zn869      Zn  0.20431671  0.99613878  0.25880966     1.49720
Zn870      Zn  0.24952333  0.99826603  0.20689836     1.49360
Zn871      Zn  0.25226991  0.54767193  0.25839369     1.49110
Zn872      Zn  0.27433626  0.97796473  0.27307444     1.49480
O873        O  0.24612615  0.50444839  0.25026940    -1.82720
O874        O  0.18426573  0.97260188  0.22609881    -0.73350
O875        O  0.27417289  0.53121781  0.18778080    -0.73170
O876        O  0.21554920  0.56846476  0.27813602    -0.72690
O877        O  0.21060475  0.98742508  0.18592298    -0.73360
O878        O  0.18028202  0.53230305  0.27244498    -0.72960
O879        O  0.27465668  0.56738975  0.22380222    -0.73550
O880        O  0.30488350  0.00722518  0.29728670    -0.72940
O881        O  0.27450239  0.96219478  0.19821808    -0.73690
O882        O  0.28375113  0.55275845  0.28878424    -0.73080
O883        O  0.29714575  0.94966315  0.24132861    -0.73550
O884        O  0.24827029  0.95091452  0.30253753    -0.73460
O885        O  0.20188453  0.96826988  0.29218100    -0.73250
C886        C  0.18920082  0.97193680  0.19784860     0.78540
C887        C  0.28423085  0.55667113  0.19840170     0.79030
C888        C  0.18867623  0.55832939  0.28308546     0.77990
C889        C  0.30408619  0.53666874  0.30093515     0.78370
C890        C  0.29335733  0.94611005  0.21255064     0.79500
C891        C  0.21935850  0.95116071  0.30699374     0.78550
Zn892      Zn  0.49924658  0.75676037  0.20597480     1.49720
Zn893      Zn  0.49696996  0.70968278  0.25444616     1.49360
Zn894      Zn  0.04961002  0.75744122  0.25415524     1.49110
Zn895      Zn  0.48090501  0.78092382  0.27525355     1.49480
O896        O  0.50605229  0.75225517  0.24870136    -1.82720
O897        O  0.47945117  0.72182380  0.18308220    -0.73350
O898        O  0.03096061  0.68726843  0.27433207    -0.73170
O899        O  0.06984509  0.77870427  0.21887962    -0.72690
O900        O  0.47517639  0.68888611  0.22028863    -0.73360
O901        O  0.03288237  0.77799025  0.18495038    -0.72960
O902        O  0.07009992  0.71926579  0.26967433    -0.73550
O903        O  0.51175853  0.80709170  0.30323982    -0.72940
O904        O  0.46579598  0.70745810  0.28445079    -0.73690
O905        O  0.05600978  0.78750077  0.28756948    -0.73080
O906        O  0.45132505  0.75321392  0.30231104    -0.73550
O907        O  0.45566540  0.80990250  0.24601658    -0.73460
O908        O  0.46886308  0.78731517  0.20273947    -0.73250
C909        C  0.46829572  0.69729774  0.19377895     0.78540
C910        C  0.05837249  0.69481227  0.28032515     0.79030
C911        C  0.05884057  0.78743912  0.19377159     0.77990
C912        C  0.04102859  0.80567079  0.30470507     0.78370
C913        C  0.44959746  0.72361532  0.30211960     0.79500
C914        C  0.45395354  0.80764355  0.21690457     0.78550
Zn915      Zn  0.25379991  0.70234390  0.49716593     1.49720
Zn916      Zn  0.20657030  0.75231342  0.49285838     1.49360
Zn917      Zn  0.24826461  0.75234289  0.04681904     1.49110
Zn918      Zn  0.27422811  0.77190584  0.48061509     1.49480
O919        O  0.24759251  0.74482413  0.50408667    -1.82720
O920        O  0.21757458  0.68258346  0.47768627    -0.73350
O921        O  0.18909378  0.78525865  0.02031650    -0.73170
O922        O  0.26858303  0.71782399  0.06873326    -0.72690
O923        O  0.18019475  0.71523871  0.48823867    -0.73360
O924        O  0.27357056  0.68258826  0.03177525    -0.72960
O925        O  0.20948564  0.76976238  0.06351543    -0.73550
O926        O  0.30253515  0.79488524  0.51338500    -0.72940
O927        O  0.20669856  0.76715922  0.45150474    -0.73690
O928        O  0.27705439  0.78517183  0.05561420    -0.73080
O929        O  0.24309351  0.80168092  0.45792346    -0.73550
O930        O  0.30018412  0.74285390  0.45049283    -0.73460
O931        O  0.28452939  0.69741669  0.46659020    -0.73250
C932        C  0.19008946  0.69114295  0.47482309     0.78540
C933        C  0.19177484  0.78733467  0.04898418     0.79030
C934        C  0.27986955  0.69292813  0.05814449     0.77990
C935        C  0.29928242  0.79772342  0.04240872     0.78370
C936        C  0.21667138  0.79396481  0.44733140     0.79500
C937        C  0.30080626  0.71316640  0.44909315     0.78550
Zn938      Zn  0.45034496  0.49740928  0.99614655     1.49720
Zn939      Zn  0.99992797  0.94828654  0.99871542     1.49360
Zn940      Zn  0.00237229  0.49810064  0.44976544     1.49110
Zn941      Zn  0.01729825  0.51895158  0.02036661     1.49480
O942        O  0.99344397  0.49147217  0.99174287    -1.82720
O943        O  0.42909444  0.96387670  0.01871864    -0.73350
O944        O  0.01479420  0.92339896  0.46236193    -0.73170
O945        O  0.46843073  0.52101036  0.42830128    -0.72690
O946        O  0.46629724  0.93038410  0.02405458    -0.73360
O947        O  0.43011419  0.51869817  0.46114644    -0.72960
O948        O  0.02174421  0.96087582  0.42957291    -0.73550
O949        O  0.04454726  0.54786959  0.99451911    -0.72940
O950        O  0.03435518  0.94537425  0.02622728    -0.73690
O951        O  0.03477890  0.52863942  0.44827456    -0.73080
O952        O  0.04506016  0.49154271  0.04651745    -0.73550
O953        O  0.98746897  0.54507089  0.04813989    -0.73460
O954        O  0.44543685  0.52841325  0.02685686    -0.73250
C955        C  0.44025209  0.94062759  0.03180549     0.78540
C956        C  0.02649701  0.93335072  0.43792940     0.79030
C957        C  0.44189040  0.52925922  0.43699321     0.77990
C958        C  0.04858036  0.54749539  0.46571924     0.78370
C959        C  0.04934477  0.96242598  0.04446124     0.79500
C960        C  0.45831735  0.54545046  0.04628237     0.78550
C961        C  0.37457175  0.87466082  0.12908076    -0.01080
C962        C  0.37794091  0.62967826  0.37033200    -0.01080
C963        C  0.13304535  0.87506620  0.37626009    -0.01080
C964        C  0.11708793  0.62547754  0.37983476    -0.01080
C965        C  0.37514680  0.62437145  0.12461644    -0.01080
C966        C  0.12318339  0.88100207  0.12097690    -0.01080
C967        C  0.07077193  0.94600225  0.06429418    -0.03930
C968        C  0.09175419  0.92579044  0.05070344    -0.01050
C969        C  0.10446145  0.90122135  0.06693264     0.03940
C970        C  0.10127604  0.90001198  0.09937525    -0.03930
C971        C  0.07900580  0.92090324  0.11260860    -0.01040
C972        C  0.06441703  0.94353279  0.09517433     0.03940
C973        C  0.10277646  0.93295121  0.02060676     0.38590
C974        C  0.06929331  0.91972291  0.14395067     0.38580
C975        C  0.04240870  0.96447570  0.10905117     0.37000
C976        C  0.11661291  0.87626396  0.04848562     0.37000
N977        N  0.02493451  0.98114543  0.12008060    -0.37820
N978        N  0.12482233  0.85665823  0.03232262    -0.37820
N979        N  0.05880356  0.92044673  0.16806105    -0.37260
N980        N  0.11171636  0.94032606  0.49713379    -0.37260
C981        C  0.39738269  0.60610532  0.10112809    -0.03930
C982        C  0.43027261  0.61015111  0.10007445    -0.01050
C983        C  0.44958914  0.58812940  0.08595753     0.03940
C984        C  0.43769833  0.56585879  0.06566943    -0.03930
C985        C  0.40534547  0.56528014  0.06154579    -0.01040
C986        C  0.38588864  0.58571780  0.07790510     0.03940
C987        C  0.44529394  0.63951479  0.10618557     0.38590
C988        C  0.39082393  0.54315462  0.04080853     0.38580
C989        C  0.35444420  0.58630632  0.06799674     0.37000
C990        C  0.48221964  0.58991362  0.09152635     0.37000
N991        N  0.33052162  0.58572965  0.05697806    -0.37820
N992        N  0.00811516  0.59154208  0.09626081    -0.37820
N993        N  0.37893352  0.52591810  0.02425727    -0.37260
N994        N  0.45868188  0.66238727  0.10947527    -0.37260
C995        C  0.06648703  0.57128773  0.44985888    -0.03930
C996        C  0.05046125  0.59070325  0.43066120    -0.01050
C997        C  0.06537558  0.60682676  0.40734225     0.03940
C998        C  0.09790102  0.60465264  0.40287646    -0.03930
C999        C  0.11388997  0.58633970  0.42495459    -0.01040
C1000       C  0.09815174  0.56967521  0.44756269     0.03940
C1001       C  0.01781985  0.59424575  0.43571062     0.38590
C1002       C  0.14663863  0.58200468  0.42368528     0.38580
C1003       C  0.11444212  0.54962925  0.46786706     0.37000
C1004       C  0.04619449  0.62764153  0.39101312     0.37000
N1005       N  0.12740328  0.53366714  0.98406832    -0.37820
N1006       N  0.02992025  0.64440662  0.37922036    -0.37820
N1007       N  0.17246648  0.57681206  0.42390128    -0.37260
N1008       N  0.99202695  0.59673482  0.44052923    -0.37260
C1009       C  0.10650974  0.89412889  0.39314016    -0.03930
C1010       C  0.08395475  0.91120343  0.37683212    -0.01050
C1011       C  0.05581967  0.91968838  0.39035583     0.03940
C1012       C  0.05030795  0.91478945  0.42132597    -0.03930
C1013       C  0.07320334  0.90009486  0.43815266    -0.01040
C1014       C  0.10216239  0.89423450  0.42525477     0.03940
C1015       C  0.09153470  0.92745661  0.34945109     0.38590
C1016       C  0.06717591  0.89036261  0.46887891     0.38580
C1017       C  0.12784247  0.89344940  0.44592362     0.37000
C1018       C  0.03247562  0.93414053  0.37217487     0.37000
N1019       N  0.14811781  0.89299930  0.46268206    -0.37820
N1020       N  0.01391996  0.94563466  0.35767941    -0.37820
N1021       N  0.06193366  0.88172236  0.99301476    -0.37260
N1022       N  0.09629884  0.94255503  0.32859591    -0.37260
C1023       C  0.42586572  0.55450121  0.42060377    -0.03930
C1024       C  0.41440751  0.58019427  0.43696318    -0.01050
C1025       C  0.39849529  0.60410920  0.42232037     0.03940
C1026       C  0.39812444  0.60605483  0.38963795    -0.03930
C1027       C  0.41394793  0.58120093  0.37371228    -0.01040
C1028       C  0.42522257  0.55514141  0.38889644     0.03940
C1029       C  0.42050887  0.58325871  0.46927551     0.38590
C1030       C  0.42086167  0.58233471  0.34153472     0.38580
C1031       C  0.43638531  0.52866780  0.37159999     0.37000
C1032       C  0.38116828  0.62405631  0.44257873     0.37000
N1033       N  0.44508928  0.00748081  0.35787431    -0.37820
N1034       N  0.36753443  0.63835663  0.46037389    -0.37820
N1035       N  0.42814314  0.58189287  0.31627943    -0.37260
N1036       N  0.42575131  0.58685677  0.49479857    -0.37260
C1037       C  0.39313913  0.89900039  0.10923705    -0.03930
C1038       C  0.42569391  0.90186169  0.10844063    -0.01050
C1039       C  0.44069137  0.91403073  0.08275310     0.03940
C1040       C  0.42401245  0.92727774  0.05874924    -0.03930
C1041       C  0.39227259  0.93066676  0.06260806    -0.01040
C1042       C  0.37716574  0.91784237  0.08790710     0.03940
C1043       C  0.44456473  0.89714447  0.13491697     0.38590
C1044       C  0.37421575  0.94487132  0.03909150     0.38580
C1045       C  0.34468272  0.92339571  0.09000697     0.37000
C1046       C  0.47374405  0.91260369  0.08151342     0.37000
N1047       N  0.31908608  0.92968685  0.09012838    -0.37820
N1048       N  0.00001992  0.91074858  0.08073043    -0.37820
N1049       N  0.35959717  0.95587394  0.52040471    -0.37260
N1050       N  0.46052115  0.89504725  0.15566486    -0.37260
C1051       C  0.17481002  0.81119321  0.06612406    -0.03930
C1052       C  0.18403477  0.84229244  0.06539795    -0.01050
C1053       C  0.16960836  0.86481612  0.08431967     0.03940
C1054       C  0.14528037  0.85632943  0.10442140    -0.03930
C1055       C  0.14306136  0.82349975  0.10932141    -0.01040
C1056       C  0.15355187  0.80210092  0.08761086     0.03940
C1057       C  0.20843486  0.85107182  0.04492776     0.38590
C1058       C  0.13961836  0.81027565  0.13910101     0.38580
C1059       C  0.14473862  0.76980697  0.08944238     0.37000
C1060       C  0.18154769  0.89584909  0.08316643     0.37000
N1061       N  0.13773826  0.74415108  0.09096226    -0.37820
N1062       N  0.19347347  0.91957225  0.08132415    -0.37820
N1063       N  0.13894996  0.79769552  0.16201244    -0.37260
N1064       N  0.22786561  0.85794636  0.02857579    -0.37260
C1065       C  0.19543207  0.81590835  0.43184029    -0.03930
C1066       C  0.20653383  0.84063471  0.41526015    -0.01050
C1067       C  0.18627421  0.86279980  0.40417140     0.03940
C1068       C  0.15415577  0.85617022  0.39978073    -0.03930
C1069       C  0.14284105  0.83258579  0.41933866    -0.01040
C1070       C  0.16318017  0.81331891  0.43543177     0.03940
C1071       C  0.23909154  0.84460942  0.41073128     0.38590
C1072       C  0.11031609  0.82799486  0.42422096     0.38580
C1073       C  0.15029644  0.79107305  0.45613863     0.37000
C1074       C  0.19806002  0.89396262  0.40683355     0.37000
N1075       N  0.13957927  0.77351010  0.47249952    -0.37820
N1076       N  0.20901817  0.91804369  0.41063282    -0.37820
N1077       N  0.08459701  0.82379682  0.42846722    -0.37260
N1078       N  0.26499827  0.84779535  0.40687703    -0.37260
C1079       C  0.35677939  0.65242126  0.39048653    -0.03930
C1080       C  0.32403262  0.65112047  0.39093039    -0.01050
C1081       C  0.30750460  0.66779015  0.41295779     0.03940
C1082       C  0.31980027  0.69475416  0.42690337    -0.03930
C1083       C  0.35102856  0.70053117  0.42286174    -0.01040
C1084       C  0.36971782  0.67852788  0.40729156     0.03940
C1085       C  0.30527584  0.63584860  0.36796845     0.38590
C1086       C  0.36469437  0.72719574  0.43800458     0.38580
C1087       C  0.40232139  0.68230574  0.41148324     0.37000
C1088       C  0.27885047  0.65440164  0.42283489     0.37000
N1089       N  0.42791521  0.68641587  0.41651821    -0.37820
N1090       N  0.25711219  0.64199536  0.43123986    -0.37820
N1091       N  0.37564845  0.74837893  0.45012958    -0.37260
N1092       N  0.28925750  0.62454842  0.35004069    -0.37260
C1093       C  0.34955506  0.64133320  0.10488511    -0.03930
C1094       C  0.31701519  0.63514041  0.10793845    -0.01050
C1095       C  0.29508905  0.65542050  0.09676396     0.03940
C1096       C  0.30348582  0.67683039  0.07535483    -0.03930
C1097       C  0.33424321  0.67924507  0.06640983    -0.01040
C1098       C  0.35712474  0.66172054  0.08073931     0.03940
C1099       C  0.30444781  0.60475342  0.11362308     0.38590
C1100       C  0.34244502  0.70075191  0.04281945     0.38580
C1101       C  0.38797245  0.66538081  0.06969312     0.37000
C1102       C  0.26298737  0.65156477  0.10430191     0.37000
N1103       N  0.41161667  0.66955316  0.05883271    -0.37820
N1104       N  0.23746632  0.64835688  0.11015314    -0.37820
N1105       N  0.34886328  0.71797267  0.02411539    -0.36860
N1106       N  0.29265355  0.58100597  0.11601434    -0.37260
C1107       C  0.35986786  0.84969438  0.10524199    -0.03930
C1108       C  0.34386447  0.82256163  0.11451960    -0.01050
C1109       C  0.32578495  0.80495114  0.09360207     0.03940
C1110       C  0.32182600  0.81427582  0.06299773    -0.03930
C1111       C  0.34029701  0.83832963  0.05288290    -0.01040
C1112       C  0.36216869  0.85198619  0.07251842     0.03940
C1113       C  0.34664162  0.81038878  0.14471334     0.38590
C1114       C  0.33841224  0.84818903  0.02165128     0.38580
C1115       C  0.39056263  0.85888402  0.05724852     0.37000
C1116       C  0.31110275  0.77708283  0.10434220     0.37000
N1117       N  0.41253772  0.86231303  0.04311971    -0.37820
N1118       N  0.29945828  0.75524332  0.11365453    -0.37820
N1119       N  0.33703141  0.85621580  0.49681104    -0.37260
N1120       N  0.34819664  0.79790381  0.16762070    -0.37260
C1121       C  0.17117654  0.67545453  0.45142671    -0.03930
C1122       C  0.13993884  0.67061710  0.45496839    -0.01050
C1123       C  0.12252338  0.65971398  0.42997130     0.03940
C1124       C  0.13697279  0.64554880  0.40341264    -0.03930
C1125       C  0.16968644  0.64826245  0.40290778    -0.01040
C1126       C  0.18428316  0.66864232  0.42310265     0.03940
C1127       C  0.12539978  0.67849511  0.48370069     0.38590
C1128       C  0.19040962  0.62844537  0.38608470     0.38580
C1129       C  0.21035018  0.68617588  0.41256151     0.37000
C1130       C  0.09018033  0.66601637  0.43193907     0.37000
N1131       N  0.23030646  0.70108289  0.40374516    -0.37820
N1132       N  0.06505621  0.67326514  0.43542250    -0.37820
N1133       N  0.20804942  0.61295121  0.37365290    -0.37260
N1134       N  0.11383110  0.68468079  0.00661880    -0.37260
C1135       C  0.06022625  0.82544673  0.32552349    -0.03930
C1136       C  0.07271650  0.85280330  0.31406495    -0.01050
C1137       C  0.10078830  0.86485763  0.32539375     0.03940
C1138       C  0.11462107  0.85308630  0.35225122    -0.03930
C1139       C  0.10514213  0.82246317  0.35867576    -0.01040
C1140       C  0.07647929  0.81085967  0.34870100     0.03940
C1141       C  0.05756761  0.86761232  0.28902698     0.38590
C1142       C  0.12785404  0.79954638  0.36546872     0.38580
C1143       C  0.06470582  0.78237695  0.36091110     0.37000
C1144       C  0.11814471  0.88404809  0.30500621     0.37000
N1145       N  0.05510390  0.75983565  0.37085074    -0.37820
N1146       N  0.13155459  0.89885196  0.28790535    -0.37820
N1147       N  0.14576494  0.78084345  0.37044924    -0.37260
N1148       N  0.04548559  0.87940754  0.26907356    -0.37260
C1149       C  0.07437273  0.81198881  0.17587852    -0.03930
C1150       C  0.06920038  0.81410804  0.14441920    -0.01050
C1151       C  0.08036084  0.83951195  0.12806913     0.03940
C1152       C  0.10061772  0.86181284  0.14199625    -0.03930
C1153       C  0.10157383  0.86176338  0.17456840    -0.01040
C1154       C  0.09042259  0.83623211  0.19080536     0.03940
C1155       C  0.05523371  0.78836741  0.12788801     0.38590
C1156       C  0.10938791  0.88881911  0.19277504     0.38580
C1157       C  0.09723941  0.83446138  0.22296456     0.37000
C1158       C  0.07200815  0.84066952  0.09628421     0.37000
N1159       N  0.10361945  0.83263687  0.24831399    -0.37820
N1160       N  0.06381394  0.84043377  0.07133874    -0.37820
N1161       N  0.11405094  0.90995370  0.20855943    -0.37260
N1162       N  0.04421755  0.76792215  0.11461451    -0.37260
C1163       C  0.43111152  0.70492615  0.32372438    -0.03930
C1164       C  0.39936299  0.70357178  0.32222671    -0.01050
C1165       C  0.38294910  0.67861776  0.33516536     0.03940
C1166       C  0.39797917  0.65407124  0.35132290    -0.03930
C1167       C  0.43076275  0.65735880  0.35355392    -0.01040
C1168       C  0.44648119  0.68200594  0.33968672     0.03940
C1169       C  0.38359738  0.72754792  0.30608318     0.38590
C1170       C  0.44978223  0.63800024  0.37185650     0.38580
C1171       C  0.47957699  0.68427415  0.34140740     0.37000
C1172       C  0.35039005  0.67834075  0.32965374     0.37000
N1173       N  0.50575662  0.68740641  0.34132314    -0.37820
N1174       N  0.32483973  0.67989207  0.32347621    -0.37820
N1175       N  0.46606313  0.62341527  0.38626634    -0.37260
N1176       N  0.37108603  0.74679641  0.29336326    -0.37260
C1177       C  0.07500866  0.67707874  0.30398935    -0.03930
C1178       C  0.09140508  0.69307080  0.32688328    -0.01050
C1179       C  0.10008614  0.67855652  0.35410138     0.03940
C1180       C  0.09699131  0.64564732  0.35727094    -0.03930
C1181       C  0.07995022  0.62999949  0.33337717    -0.01040
C1182       C  0.06952238  0.64548870  0.30743723     0.03940
C1183       C  0.10118570  0.72457772  0.32167913     0.38590
C1184       C  0.07106288  0.59785203  0.33536926     0.38580
C1185       C  0.05415543  0.62827573  0.28323666     0.37000
C1186       C  0.11390348  0.69880836  0.37679865     0.37000
N1187       N  0.04206321  0.61451922  0.26394400    -0.37820
N1188       N  0.12475681  0.71644789  0.39367688    -0.37820
N1189       N  0.06198204  0.57278682  0.33570893    -0.37260
N1190       N  0.10966277  0.74922880  0.31665963    -0.37260
C1191       C  0.43462795  0.82761219  0.19704778    -0.03930
C1192       C  0.44135475  0.82863924  0.16559635    -0.01050
C1193       C  0.41960889  0.83814418  0.14430624     0.03940
C1194       C  0.39409343  0.85600213  0.15357687    -0.03930
C1195       C  0.38663675  0.85369985  0.18585462    -0.01040
C1196       C  0.40704038  0.84030444  0.20693078     0.03940
C1197       C  0.47195648  0.82252255  0.15460749     0.38590
C1198       C  0.35595797  0.85760783  0.19773619     0.38580
C1199       C  0.39853783  0.83779831  0.23871475     0.37000
C1200       C  0.42485810  0.82886827  0.11302609     0.37000
N1201       N  0.39154555  0.83572680  0.26392737    -0.37820
N1202       N  0.43103033  0.81914538  0.08919731    -0.37820
N1203       N  0.33198305  0.85876636  0.20868603    -0.37260
N1204       N  0.99627906  0.81863289  0.14530887    -0.37260
C1205       C  0.39647900  0.64556687  0.14571450    -0.03930
C1206       C  0.39766409  0.67869664  0.14555007    -0.01050
C1207       C  0.42154934  0.69515584  0.16046032     0.03940
C1208       C  0.44447031  0.67961349  0.17655792    -0.03930
C1209       C  0.44198150  0.64762612  0.17969378    -0.01040
C1210       C  0.41797183  0.63094582  0.16566771     0.03940
C1211       C  0.37358125  0.69737944  0.13326451     0.38590
C1212       C  0.46533312  0.63121345  0.19629666     0.38580
C1213       C  0.41770802  0.59815062  0.17129601     0.37000
C1214       C  0.42166976  0.72866620  0.16002633     0.37000
N1215       N  0.41964788  0.57258686  0.17794352    -0.37820
N1216       N  0.42133630  0.75529114  0.15944422    -0.37820
N1217       N  0.48381150  0.61807454  0.20945428    -0.37260
N1218       N  0.35486362  0.71388836  0.12498988    -0.37260
C1219       C  0.20357133  0.93131380  0.32911975    -0.03930
C1220       C  0.20120936  0.89951758  0.32379224    -0.01050
C1221       C  0.17820114  0.88209470  0.33822212     0.03940
C1222       C  0.15617648  0.89634738  0.35831832    -0.03930
C1223       C  0.16081197  0.92871877  0.36509262    -0.01040
C1224       C  0.18427248  0.94548360  0.35060078     0.03940
C1225       C  0.22242423  0.88467877  0.30291728     0.38590
C1226       C  0.14533949  0.94489696  0.38977599     0.38580
C1227       C  0.19024336  0.97748020  0.35926255     0.37000
C1228       C  0.17801897  0.84914684  0.33204434     0.37000
N1229       N  0.19527552  0.50280246  0.36635919    -0.37820
N1230       N  0.17893565  0.82310115  0.32609645    -0.37820
N1231       N  0.13371784  0.95882772  0.40920967    -0.37260
N1232       N  0.23944796  0.87270918  0.28650216    -0.37260
C1233       C  0.30949362  0.57290272  0.18205922    -0.03930
C1234       C  0.31322557  0.60490776  0.18531336    -0.01050
C1235       C  0.33749146  0.62017909  0.17071174     0.03940
C1236       C  0.35674723  0.60442489  0.14871260    -0.03930
C1237       C  0.35486641  0.57138825  0.14856502    -0.01040
C1238       C  0.33174514  0.55610138  0.16528906     0.03940
C1239       C  0.29065271  0.62294311  0.20207329     0.38590
C1240       C  0.37678525  0.55182008  0.13303408     0.38580
C1241       C  0.33082870  0.52263290  0.16457303     0.37000
C1242       C  0.34017756  0.65280368  0.17789318     0.37000
N1243       N  0.33032072  0.49600050  0.16343901    -0.37820
N1244       N  0.34046562  0.67831004  0.18603863    -0.37820
N1245       N  0.39395300  0.53468743  0.12218154    -0.37260
N1246       N  0.27268187  0.63739386  0.21518945    -0.37260
C1247       C  0.32744924  0.55484817  0.31816163    -0.03930
C1248       C  0.32623276  0.55678834  0.34976698    -0.01050
C1249       C  0.34129734  0.58106482  0.36581956     0.03940
C1250       C  0.35830890  0.60510483  0.35041361    -0.03930
C1251       C  0.35970107  0.60167900  0.31778039    -0.01040
C1252       C  0.34476731  0.57677669  0.30243579     0.03940
C1253       C  0.30766521  0.53450229  0.36578428     0.38590
C1254       C  0.37760901  0.62160749  0.29858127     0.38580
C1255       C  0.34741178  0.57327018  0.26961804     0.37000
C1256       C  0.33640373  0.58187834  0.39844246     0.37000
N1257       N  0.34983446  0.57038061  0.24357771    -0.37820
N1258       N  0.33085906  0.58139499  0.42411421    -0.37820
N1259       N  0.39174504  0.63622672  0.28188901    -0.37260
N1260       N  0.29278850  0.51682044  0.37848412    -0.37260
C1261       C  0.13699529  0.60629130  0.35522250    -0.03930
C1262       C  0.13456279  0.57337391  0.34999384    -0.01050
C1263       C  0.14912494  0.55865332  0.32489037     0.03940
C1264       C  0.16794380  0.57521437  0.30480721    -0.03930
C1265       C  0.16945338  0.60730185  0.30813421    -0.01040
C1266       C  0.15438030  0.62272146  0.33242954     0.03940
C1267       C  0.11581818  0.55307878  0.36812827     0.38590
C1268       C  0.18615810  0.62490911  0.28571147     0.38580
C1269       C  0.15971410  0.65578627  0.33432477     0.37000
C1270       C  0.14370338  0.52586049  0.31943342     0.37000
N1271       N  0.16592993  0.68174179  0.33476740    -0.37820
N1272       N  0.13878201  0.49995191  0.31497560    -0.37820
N1273       N  0.19937903  0.63894940  0.26788246    -0.37260
N1274       N  0.10114702  0.53540634  0.38112581    -0.37260
C1275       C  0.31306492  0.92555538  0.19344178    -0.03930
C1276       C  0.30025861  0.90679393  0.17013566    -0.01050
C1277       C  0.31873710  0.89140434  0.14815303     0.03940
C1278       C  0.35122810  0.89536627  0.14821807    -0.03930
C1279       C  0.36278798  0.91852010  0.16936280    -0.01040
C1280       C  0.34450804  0.93096467  0.19301340     0.03940
C1281       C  0.26750764  0.90327931  0.16825685     0.38590
C1282       C  0.39281225  0.93212316  0.16687567     0.38580
C1283       C  0.35801478  0.95124960  0.21608836     0.37000
C1284       C  0.30263943  0.87464567  0.12430954     0.37000
N1285       N  0.36878392  0.96734546  0.23441475    -0.37820
N1286       N  0.28790146  0.86278687  0.10566442    -0.37820
N1287       N  0.41532886  0.94611061  0.16648891    -0.37260
N1288       N  0.24158546  0.89999780  0.16515056    -0.37260
C1289       C  0.14428731  0.90556000  0.13856573    -0.03930
C1290       C  0.16520253  0.89646323  0.16155278    -0.01050
C1291       C  0.17651985  0.91822396  0.18296898     0.03940
C1292       C  0.17207381  0.94985286  0.17887531    -0.03930
C1293       C  0.15614461  0.95989836  0.15379231    -0.01040
C1294       C  0.14431874  0.93837312  0.13261575     0.03940
C1295       C  0.17703780  0.86558787  0.16345633     0.38590
C1296       C  0.15270743  0.99285930  0.14932422     0.38580
C1297       C  0.13967013  0.95124304  0.10287911     0.37000
C1298       C  0.19239837  0.90787603  0.20984262     0.37000
N1299       N  0.13819335  0.96381520  0.08002232    -0.37820
N1300       N  0.20493669  0.89969759  0.23126727    -0.37820
N1301       N  0.14999964  0.51903208  0.14575054    -0.37260
N1302       N  0.18946498  0.84239646  0.16631454    -0.37260
Zn1303     Zn  0.20431672  0.99613877  0.75880972     1.49720
Zn1304     Zn  0.24952333  0.99826604  0.70689841     1.49360
Zn1305     Zn  0.25226991  0.54767192  0.75839367     1.49110
Zn1306     Zn  0.27433628  0.97796473  0.77307447     1.49480
O1307       O  0.24612615  0.50444839  0.75026938    -1.82720
O1308       O  0.18426572  0.97260189  0.72609886    -0.73350
O1309       O  0.27417289  0.53121781  0.68778077    -0.73170
O1310       O  0.21554920  0.56846474  0.77813599    -0.72690
O1311       O  0.21060474  0.98742510  0.68592303    -0.73360
O1312       O  0.18028200  0.53230306  0.77244491    -0.72960
O1313       O  0.27465668  0.56738974  0.72380220    -0.73550
O1314       O  0.30488352  0.00722519  0.79728672    -0.72940
O1315       O  0.27450238  0.96219478  0.69821811    -0.73690
O1316       O  0.28375113  0.55275844  0.78878423    -0.73080
O1317       O  0.29714577  0.94966317  0.74132863    -0.73550
O1318       O  0.24827033  0.95091451  0.80253756    -0.73460
O1319       O  0.20188456  0.96826984  0.79218104    -0.73250
C1320       C  0.18920081  0.97193681  0.69784865     0.78540
C1321       C  0.28423085  0.55667113  0.69840167     0.79030
C1322       C  0.18867622  0.55832938  0.78308541     0.77990
C1323       C  0.30408618  0.53666872  0.80093514     0.78370
C1324       C  0.29335734  0.94611006  0.71255066     0.79500
C1325       C  0.21935854  0.95116067  0.80699377     0.78550
Zn1326     Zn  0.49924659  0.75676035  0.70597480     1.49720
Zn1327     Zn  0.49696997  0.70968276  0.75444616     1.49360
Zn1328     Zn  0.04961003  0.75744121  0.75415524     1.49110
Zn1329     Zn  0.48090501  0.78092380  0.77525355     1.49480
O1330       O  0.50605230  0.75225515  0.74870136    -1.82720
O1331       O  0.47945118  0.72182379  0.68308220    -0.73350
O1332       O  0.03096062  0.68726842  0.77433206    -0.73170
O1333       O  0.06984510  0.77870427  0.71887963    -0.72690
O1334       O  0.47517639  0.68888610  0.72028863    -0.73360
O1335       O  0.03288238  0.77799025  0.68495038    -0.72960
O1336       O  0.07009993  0.71926577  0.76967433    -0.73550
O1337       O  0.51175853  0.80709168  0.80323982    -0.72940
O1338       O  0.46579598  0.70745808  0.78445079    -0.73690
O1339       O  0.05600978  0.78750075  0.78756949    -0.73080
O1340       O  0.45132506  0.75321390  0.80231104    -0.73550
O1341       O  0.45566541  0.80990249  0.74601659    -0.73460
O1342       O  0.46886309  0.78731515  0.70273947    -0.73250
C1343       C  0.46829572  0.69729773  0.69377894     0.78540
C1344       C  0.05837250  0.69481225  0.78032515     0.79030
C1345       C  0.05884057  0.78743911  0.69377160     0.77990
C1346       C  0.04102860  0.80567078  0.80470508     0.78370
C1347       C  0.44959746  0.72361530  0.80211960     0.79500
C1348       C  0.45395354  0.80764354  0.71690458     0.78550
Zn1349     Zn  0.25379991  0.70234385  0.99716594     1.49720
Zn1350     Zn  0.20657030  0.75231336  0.99285837     1.49360
Zn1351     Zn  0.24826462  0.75234292  0.54681904     1.49110
Zn1352     Zn  0.27422810  0.77190579  0.98061509     1.49480
O1353       O  0.24759250  0.74482409  0.00408667    -1.82720
O1354       O  0.21757459  0.68258340  0.97768628    -0.73350
O1355       O  0.18909380  0.78525871  0.52031651    -0.73170
O1356       O  0.26858304  0.71782401  0.56873325    -0.72690
O1357       O  0.18019475  0.71523865  0.98823868    -0.73360
O1358       O  0.27357055  0.68258829  0.53177524    -0.72960
O1359       O  0.20948564  0.76976242  0.56351543    -0.73550
O1360       O  0.30253514  0.79488521  0.01338499    -0.72940
O1361       O  0.20669855  0.76715916  0.95150473    -0.73690
O1362       O  0.27705440  0.78517186  0.55561421    -0.73080
O1363       O  0.24309350  0.80168086  0.95792345    -0.73550
O1364       O  0.30018412  0.74285386  0.95049283    -0.73460
O1365       O  0.28452939  0.69741664  0.96659020    -0.73250
C1366       C  0.19008946  0.69114288  0.97482309     0.78540
C1367       C  0.19177485  0.78733471  0.54898420     0.79030
C1368       C  0.27986956  0.69292815  0.55814448     0.77990
C1369       C  0.29928243  0.79772345  0.54240873     0.78370
C1370       C  0.21667137  0.79396474  0.94733139     0.79500
C1371       C  0.30080626  0.71316636  0.94909316     0.78550
Zn1372     Zn  0.45034497  0.49740929  0.49614654     1.49720
Zn1373     Zn  0.99992796  0.94828655  0.49871544     1.49360
Zn1374     Zn  0.00237228  0.49810063  0.94976544     1.49110
Zn1375     Zn  0.01729825  0.51895158  0.52036660     1.49480
O1376       O  0.99344397  0.49147217  0.49174286    -1.82720
O1377       O  0.42909444  0.96387670  0.51871866    -0.73350
O1378       O  0.01479421  0.92339896  0.96236191    -0.73170
O1379       O  0.46843072  0.52101034  0.92830129    -0.72690
O1380       O  0.46629724  0.93038411  0.52405460    -0.73360
O1381       O  0.43011418  0.51869816  0.96114645    -0.72960
O1382       O  0.02174424  0.96087583  0.92957290    -0.73550
O1383       O  0.04454726  0.54786961  0.49451912    -0.72940
O1384       O  0.03435518  0.94537425  0.52622730    -0.73690
O1385       O  0.03477889  0.52863940  0.94827456    -0.73080
O1386       O  0.04506017  0.49154271  0.54651744    -0.73550
O1387       O  0.98746897  0.54507088  0.54813989    -0.73460
O1388       O  0.44543686  0.52841326  0.52685685    -0.73250
C1389       C  0.44025209  0.94062760  0.53180552     0.78540
C1390       C  0.02649703  0.93335074  0.93792938     0.79030
C1391       C  0.44189039  0.52925921  0.93699322     0.77990
C1392       C  0.04858036  0.54749537  0.96571923     0.78370
C1393       C  0.04934476  0.96242599  0.54446126     0.79500
C1394       C  0.45831735  0.54545046  0.54628236     0.78550
C1395       C  0.37457175  0.87466083  0.62908078    -0.01080
C1396       C  0.37794091  0.62967823  0.87033199    -0.01080
C1397       C  0.13304537  0.87506617  0.87626009    -0.01080
C1398       C  0.11708794  0.62547750  0.87983475    -0.01080
C1399       C  0.37514680  0.62437145  0.62461642    -0.01080
C1400       C  0.12318339  0.88100209  0.62097693    -0.01080
C1401       C  0.07077192  0.94600227  0.56429421    -0.03930
C1402       C  0.09175419  0.92579046  0.55070347    -0.01050
C1403       C  0.10446146  0.90122137  0.56693266     0.03940
C1404       C  0.10127604  0.90001201  0.59937528    -0.03930
C1405       C  0.07900579  0.92090325  0.61260863    -0.01040
C1406       C  0.06441702  0.94353280  0.59517436     0.03940
C1407       C  0.10277647  0.93295124  0.52060679     0.38590
C1408       C  0.06929330  0.91972292  0.64395070     0.38580
C1409       C  0.04240868  0.96447571  0.60905120     0.37000
C1410       C  0.11661292  0.87626399  0.54848565     0.37000
N1411       N  0.02493448  0.98114542  0.62008062    -0.37820
N1412       N  0.12482234  0.85665826  0.53232265    -0.37820
N1413       N  0.05880355  0.92044674  0.66806107    -0.37260
N1414       N  0.11171636  0.94032603  0.99713376    -0.37260
C1415       C  0.39738269  0.60610533  0.60112807    -0.03930
C1416       C  0.43027261  0.61015112  0.60007443    -0.01050
C1417       C  0.44958915  0.58812940  0.58595752     0.03940
C1418       C  0.43769834  0.56585879  0.56566943    -0.03930
C1419       C  0.40534547  0.56528013  0.56154579    -0.01040
C1420       C  0.38588864  0.58571780  0.57790509     0.03940
C1421       C  0.44529394  0.63951479  0.60618556     0.38590
C1422       C  0.39082393  0.54315459  0.54080855     0.38580
C1423       C  0.35444421  0.58630633  0.56799672     0.37000
C1424       C  0.48221965  0.58991364  0.59152632     0.37000
N1425       N  0.33052163  0.58572967  0.55697803    -0.37820
N1426       N  0.00811516  0.59154211  0.59626077    -0.37820
N1427       N  0.37893352  0.52591804  0.52425731    -0.37260
N1428       N  0.45868188  0.66238728  0.60947525    -0.37260
C1429       C  0.06648703  0.57128770  0.94985887    -0.03930
C1430       C  0.05046126  0.59070322  0.93066119    -0.01050
C1431       C  0.06537559  0.60682673  0.90734223     0.03940
C1432       C  0.09790103  0.60465260  0.90287644    -0.03930
C1433       C  0.11388998  0.58633965  0.92495456    -0.01040
C1434       C  0.09815174  0.56967516  0.94756266     0.03940
C1435       C  0.01781986  0.59424573  0.93571061     0.38590
C1436       C  0.14663863  0.58200461  0.92368524     0.38580
C1437       C  0.11444212  0.54962919  0.96786702     0.37000
C1438       C  0.04619450  0.62764150  0.89101310     0.37000
N1439       N  0.12740328  0.53366720  0.48406836    -0.37820
N1440       N  0.02992026  0.64440659  0.87922034    -0.37820
N1441       N  0.17246647  0.57681198  0.92390123    -0.37260
N1442       N  0.99202696  0.59673481  0.94052923    -0.37260
C1443       C  0.10650977  0.89412887  0.89314016    -0.03930
C1444       C  0.08395480  0.91120344  0.87683213    -0.01050
C1445       C  0.05581972  0.91968841  0.89035582     0.03940
C1446       C  0.05030798  0.91478946  0.92132596    -0.03930
C1447       C  0.07320335  0.90009485  0.93815265    -0.01040
C1448       C  0.10216240  0.89423447  0.92525477     0.03940
C1449       C  0.09153477  0.92745663  0.84945111     0.38590
C1450       C  0.06717590  0.89036259  0.96887889     0.38580
C1451       C  0.12784247  0.89344935  0.94592363     0.37000
C1452       C  0.03247569  0.93414059  0.87217485     0.37000
N1453       N  0.14811780  0.89299922  0.96268208    -0.37820
N1454       N  0.01392005  0.94563474  0.85767940    -0.37820
N1455       N  0.06193368  0.88172239  0.49301479    -0.37260
N1456       N  0.09629894  0.94255506  0.82859593    -0.37260
C1457       C  0.42586571  0.55450119  0.92060377    -0.03930
C1458       C  0.41440751  0.58019426  0.93696318    -0.01050
C1459       C  0.39849529  0.60410918  0.92232037     0.03940
C1460       C  0.39812444  0.60605481  0.88963795    -0.03930
C1461       C  0.41394792  0.58120091  0.87371228    -0.01040
C1462       C  0.42522256  0.55514139  0.88889645     0.03940
C1463       C  0.42050888  0.58325872  0.96927551     0.38590
C1464       C  0.42086167  0.58233468  0.84153472     0.38580
C1465       C  0.43638530  0.52866777  0.87160000     0.37000
C1466       C  0.38116828  0.62405630  0.94257873     0.37000
N1467       N  0.44508930  0.00748085  0.85787429    -0.37820
N1468       N  0.36753443  0.63835662  0.96037388    -0.37820
N1469       N  0.42814314  0.58189283  0.81627943    -0.37260
N1470       N  0.42575133  0.58685678  0.99479857    -0.37260
C1471       C  0.39313913  0.89900040  0.60923708    -0.03930
C1472       C  0.42569392  0.90186169  0.60844065    -0.01050
C1473       C  0.44069137  0.91403073  0.58275313     0.03940
C1474       C  0.42401246  0.92727775  0.55874927    -0.03930
C1475       C  0.39227260  0.93066678  0.56260810    -0.01040
C1476       C  0.37716574  0.91784239  0.58790714     0.03940
C1477       C  0.44456474  0.89714445  0.63491699     0.38590
C1478       C  0.37421575  0.94487136  0.53909155     0.38580
C1479       C  0.34468273  0.92339574  0.59000702     0.37000
C1480       C  0.47374405  0.91260368  0.58151344     0.37000
N1481       N  0.31908609  0.92968689  0.59012843    -0.37820
N1482       N  0.00001992  0.91074857  0.58073045    -0.37820
N1483       N  0.35959717  0.95587388  0.02040466    -0.37260
N1484       N  0.46052117  0.89504723  0.65566488    -0.37260
C1485       C  0.17481004  0.81119325  0.56612409    -0.03930
C1486       C  0.18403478  0.84229248  0.56539798    -0.01050
C1487       C  0.16960836  0.86481615  0.58431970     0.03940
C1488       C  0.14528037  0.85632946  0.60442142    -0.03930
C1489       C  0.14306137  0.82349978  0.60932143    -0.01040
C1490       C  0.15355189  0.80210095  0.58761088     0.03940
C1491       C  0.20843486  0.85107187  0.54492779     0.38590
C1492       C  0.13961837  0.81027567  0.63910104     0.38580
C1493       C  0.14473864  0.76980700  0.58944240     0.37000
C1494       C  0.18154768  0.89584913  0.58316647     0.37000
N1495       N  0.13773829  0.74415111  0.59096228    -0.37820
N1496       N  0.19347346  0.91957229  0.58132419    -0.37820
N1497       N  0.13894997  0.79769554  0.66201246    -0.37260
N1498       N  0.22786561  0.85794642  0.52857582    -0.37260
C1499       C  0.19543206  0.81590828  0.93184028    -0.03930
C1500       C  0.20653384  0.84063462  0.91526011    -0.01050
C1501       C  0.18627422  0.86279973  0.90417138     0.03940
C1502       C  0.15415578  0.85617018  0.89978073    -0.03930
C1503       C  0.14284105  0.83258575  0.91933866    -0.01040
C1504       C  0.16318017  0.81331887  0.93543176     0.03940
C1505       C  0.23909154  0.84460930  0.91073120     0.38590
C1506       C  0.11031609  0.82799483  0.92422095     0.38580
C1507       C  0.15029643  0.79107302  0.95613863     0.37000
C1508       C  0.19806006  0.89396254  0.90683355     0.37000
N1509       N  0.13957926  0.77351007  0.97249952    -0.37820
N1510       N  0.20901822  0.91804360  0.91063285    -0.37820
N1511       N  0.08459701  0.82379679  0.92846720    -0.37260
N1512       N  0.26499827  0.84779519  0.90687692    -0.37260
C1513       C  0.35677939  0.65242124  0.89048651    -0.03930
C1514       C  0.32403262  0.65112044  0.89093039    -0.01050
C1515       C  0.30750461  0.66779011  0.91295779     0.03940
C1516       C  0.31980027  0.69475412  0.92690337    -0.03930
C1517       C  0.35102856  0.70053114  0.92286172    -0.01040
C1518       C  0.36971781  0.67852786  0.90729155     0.03940
C1519       C  0.30527584  0.63584857  0.86796844     0.38590
C1520       C  0.36469436  0.72719572  0.93800457     0.38580
C1521       C  0.40232139  0.68230572  0.91148322     0.37000
C1522       C  0.27885049  0.65440159  0.92283491     0.37000
N1523       N  0.42791521  0.68641586  0.91651819    -0.37820
N1524       N  0.25711222  0.64199529  0.93123988    -0.37820
N1525       N  0.37564843  0.74837892  0.95012955    -0.37260
N1526       N  0.28925750  0.62454840  0.85004068    -0.37260
C1527       C  0.34955506  0.64133321  0.60488508    -0.03930
C1528       C  0.31701519  0.63514041  0.60793842    -0.01050
C1529       C  0.29508905  0.65542051  0.59676393     0.03940
C1530       C  0.30348582  0.67683040  0.57535481    -0.03930
C1531       C  0.33424321  0.67924509  0.56640982    -0.01040
C1532       C  0.35712474  0.66172055  0.58073929     0.03940
C1533       C  0.30444782  0.60475342  0.61362305     0.38590
C1534       C  0.34244503  0.70075193  0.54281945     0.38580
C1535       C  0.38797245  0.66538082  0.56969310     0.37000
C1536       C  0.26298737  0.65156476  0.60430187     0.37000
N1537       N  0.41161667  0.66955317  0.55883269    -0.37820
N1538       N  0.23746631  0.64835687  0.61015310    -0.37820
N1539       N  0.34886328  0.71797269  0.52411539    -0.36860
N1540       N  0.29265356  0.58100597  0.61601431    -0.37260
C1541       C  0.35986786  0.84969440  0.60524201    -0.03930
C1542       C  0.34386447  0.82256164  0.61451961    -0.01050
C1543       C  0.32578495  0.80495116  0.59360208     0.03940
C1544       C  0.32182600  0.81427585  0.56299774    -0.03930
C1545       C  0.34029701  0.83832967  0.55288292    -0.01040
C1546       C  0.36216869  0.85198622  0.57251844     0.03940
C1547       C  0.34664160  0.81038880  0.64471336     0.38590
C1548       C  0.33841224  0.84818907  0.52165131     0.38580
C1549       C  0.39056263  0.85888405  0.55724854     0.37000
C1550       C  0.31110276  0.77708284  0.60434220     0.37000
N1551       N  0.41253772  0.86231305  0.54311973    -0.37820
N1552       N  0.29945829  0.75524332  0.61365452    -0.37820
N1553       N  0.33703142  0.85621574  0.99681101    -0.37260
N1554       N  0.34819661  0.79790384  0.66762072    -0.37260
C1555       C  0.17117655  0.67545446  0.95142671    -0.03930
C1556       C  0.13993884  0.67061704  0.95496838    -0.01050
C1557       C  0.12252339  0.65971393  0.92997129     0.03940
C1558       C  0.13697280  0.64554875  0.90341263    -0.03930
C1559       C  0.16968646  0.64826239  0.90290778    -0.01040
C1560       C  0.18428317  0.66864225  0.92310265     0.03940
C1561       C  0.12539978  0.67849505  0.98370068     0.38590
C1562       C  0.19040963  0.62844531  0.88608470     0.38580
C1563       C  0.21035019  0.68617581  0.91256152     0.37000
C1564       C  0.09018034  0.66601633  0.93193905     0.37000
N1565       N  0.23030648  0.70108281  0.90374517    -0.37820
N1566       N  0.06505622  0.67326511  0.93542247    -0.37820
N1567       N  0.20804943  0.61295114  0.87365289    -0.37260
N1568       N  0.11383111  0.68468085  0.50661881    -0.37260
C1569       C  0.06022626  0.82544671  0.82552350    -0.03930
C1570       C  0.07271649  0.85280329  0.81406497    -0.01050
C1571       C  0.10078829  0.86485762  0.82539376     0.03940
C1572       C  0.11462108  0.85308628  0.85225122    -0.03930
C1573       C  0.10514215  0.82246315  0.85867575    -0.01040
C1574       C  0.07647931  0.81085964  0.84870099     0.03940
C1575       C  0.05756759  0.86761232  0.78902701     0.38590
C1576       C  0.12785407  0.79954635  0.86546870     0.38580
C1577       C  0.06470585  0.78237691  0.86091108     0.37000
C1578       C  0.11814470  0.88404808  0.80500622     0.37000
N1579       N  0.05510394  0.75983560  0.87085071    -0.37820
N1580       N  0.13155458  0.89885195  0.78790536    -0.37820
N1581       N  0.14576497  0.78084343  0.87044922    -0.37260
N1582       N  0.04548556  0.87940755  0.76907361    -0.37260
C1583       C  0.07437274  0.81198882  0.67587854    -0.03930
C1584       C  0.06920039  0.81410805  0.64441921    -0.01050
C1585       C  0.08036084  0.83951196  0.62806915     0.03940
C1586       C  0.10061772  0.86181286  0.64199627    -0.03930
C1587       C  0.10157383  0.86176339  0.67456842    -0.01040
C1588       C  0.09042258  0.83623212  0.69080537     0.03940
C1589       C  0.05523373  0.78836742  0.62788802     0.38590
C1590       C  0.10938790  0.88881912  0.69277507     0.38580
C1591       C  0.09723939  0.83446139  0.72296458     0.37000
C1592       C  0.07200816  0.84066953  0.59628423     0.37000
N1593       N  0.10361943  0.83263687  0.74831401    -0.37820
N1594       N  0.06381395  0.84043379  0.57133876    -0.37820
N1595       N  0.11405093  0.90995371  0.70855946    -0.37260
N1596       N  0.04421758  0.76792216  0.61461452    -0.37260
C1597       C  0.43111152  0.70492613  0.82372438    -0.03930
C1598       C  0.39936300  0.70357176  0.82222670    -0.01050
C1599       C  0.38294910  0.67861773  0.83516534     0.03940
C1600       C  0.39797917  0.65407122  0.85132289    -0.03930
C1601       C  0.43076276  0.65735877  0.85355391    -0.01040
C1602       C  0.44648119  0.68200591  0.83968672     0.03940
C1603       C  0.38359739  0.72754789  0.80608317     0.38590
C1604       C  0.44978223  0.63800021  0.87185649     0.38580
C1605       C  0.47957699  0.68427413  0.84140740     0.37000
C1606       C  0.35039005  0.67834072  0.82965372     0.37000
N1607       N  0.50575662  0.68740640  0.84132315    -0.37820
N1608       N  0.32483974  0.67989204  0.82347620    -0.37820
N1609       N  0.46606313  0.62341524  0.88626632    -0.37260
N1610       N  0.37108604  0.74679638  0.79336324    -0.37260
C1611       C  0.07500867  0.67707871  0.80398935    -0.03930
C1612       C  0.09140510  0.69307077  0.82688327    -0.01050
C1613       C  0.10008616  0.67855648  0.85410136     0.03940
C1614       C  0.09699132  0.64564729  0.85727093    -0.03930
C1615       C  0.07995022  0.62999946  0.83337716    -0.01040
C1616       C  0.06952239  0.64548868  0.80743722     0.03940
C1617       C  0.10118573  0.72457769  0.82167912     0.38590
C1618       C  0.07106288  0.59785200  0.83536924     0.38580
C1619       C  0.05415543  0.62827571  0.78323665     0.37000
C1620       C  0.11390350  0.69880832  0.87679864     0.37000
N1621       N  0.04206320  0.61451921  0.76394399    -0.37820
N1622       N  0.12475684  0.71644785  0.89367687    -0.37820
N1623       N  0.06198203  0.57278680  0.83570891    -0.37260
N1624       N  0.10966281  0.74922876  0.81665962    -0.37260
C1625       C  0.43462796  0.82761217  0.69704778    -0.03930
C1626       C  0.44135474  0.82863922  0.66559636    -0.01050
C1627       C  0.41960888  0.83814418  0.64430625     0.03940
C1628       C  0.39409344  0.85600213  0.65357689    -0.03930
C1629       C  0.38663676  0.85369985  0.68585464    -0.01040
C1630       C  0.40704039  0.84030443  0.70693080     0.03940
C1631       C  0.47195646  0.82252251  0.65460749     0.38590
C1632       C  0.35595799  0.85760784  0.69773622     0.38580
C1633       C  0.39853785  0.83779831  0.73871477     0.37000
C1634       C  0.42485808  0.82886827  0.61302610     0.37000
N1635       N  0.39154557  0.83572681  0.76392739    -0.37820
N1636       N  0.43103030  0.81914537  0.58919732    -0.37820
N1637       N  0.33198306  0.85876639  0.70868607    -0.37260
N1638       N  0.99627904  0.81863284  0.64530885    -0.37260
C1639       C  0.39647900  0.64556687  0.64571449    -0.03930
C1640       C  0.39766409  0.67869664  0.64555006    -0.01050
C1641       C  0.42154935  0.69515584  0.66046031     0.03940
C1642       C  0.44447031  0.67961349  0.67655791    -0.03930
C1643       C  0.44198150  0.64762611  0.67969377    -0.01040
C1644       C  0.41797183  0.63094582  0.66566769     0.03940
C1645       C  0.37358126  0.69737945  0.63326450     0.38590
C1646       C  0.46533312  0.63121344  0.69629665     0.38580
C1647       C  0.41770801  0.59815061  0.67129600     0.37000
C1648       C  0.42166976  0.72866619  0.66002633     0.37000
N1649       N  0.41964787  0.57258686  0.67794351    -0.37820
N1650       N  0.42133630  0.75529114  0.65944422    -0.37820
N1651       N  0.48381149  0.61807453  0.70945426    -0.37260
N1652       N  0.35486363  0.71388837  0.62498986    -0.37260
C1653       C  0.20357139  0.93131375  0.82911978    -0.03930
C1654       C  0.20120939  0.89951754  0.82379223    -0.01050
C1655       C  0.17820115  0.88209466  0.83822211     0.03940
C1656       C  0.15617651  0.89634735  0.85831833    -0.03930
C1657       C  0.16081203  0.92871873  0.86509265    -0.01040
C1658       C  0.18427256  0.94548355  0.85060083     0.03940
C1659       C  0.22242424  0.88467873  0.80291726     0.38590
C1660       C  0.14533957  0.94489691  0.88977604     0.38580
C1661       C  0.19024348  0.97748013  0.85926264     0.37000
C1662       C  0.17801896  0.84914681  0.83204430     0.37000
N1663       N  0.19527541  0.50280252  0.86635910    -0.37820
N1664       N  0.17893562  0.82310113  0.82609638    -0.37820
N1665       N  0.13371793  0.95882767  0.90920974    -0.37260
N1666       N  0.23944796  0.87270915  0.78650213    -0.37260
C1667       C  0.30949362  0.57290272  0.68205920    -0.03930
C1668       C  0.31322556  0.60490776  0.68531333    -0.01050
C1669       C  0.33749146  0.62017910  0.67071171     0.03940
C1670       C  0.35674723  0.60442489  0.64871258    -0.03930
C1671       C  0.35486640  0.57138825  0.64856500    -0.01040
C1672       C  0.33174514  0.55610138  0.66528904     0.03940
C1673       C  0.29065270  0.62294311  0.70207327     0.38590
C1674       C  0.37678525  0.55182008  0.63303406     0.38580
C1675       C  0.33082870  0.52263291  0.66457302     0.37000
C1676       C  0.34017754  0.65280369  0.67789315     0.37000
N1677       N  0.33032073  0.49600051  0.66343900    -0.37820
N1678       N  0.34046560  0.67831004  0.68603859    -0.37820
N1679       N  0.39395300  0.53468743  0.62218153    -0.37260
N1680       N  0.27268186  0.63739386  0.71518942    -0.37260
C1681       C  0.32744924  0.55484815  0.81816161    -0.03930
C1682       C  0.32623276  0.55678831  0.84976697    -0.01050
C1683       C  0.34129734  0.58106480  0.86581955     0.03940
C1684       C  0.35830890  0.60510480  0.85041359    -0.03930
C1685       C  0.35970108  0.60167898  0.81778038    -0.01040
C1686       C  0.34476732  0.57677666  0.80243578     0.03940
C1687       C  0.30766520  0.53450227  0.86578427     0.38590
C1688       C  0.37760902  0.62160746  0.79858126     0.38580
C1689       C  0.34741178  0.57327016  0.76961803     0.37000
C1690       C  0.33640373  0.58187831  0.89844245     0.37000
N1691       N  0.34983446  0.57038060  0.74357770    -0.37820
N1692       N  0.33085907  0.58139495  0.92411419    -0.37820
N1693       N  0.39174505  0.63622669  0.78188901    -0.37260
N1694       N  0.29278849  0.51682042  0.87848410    -0.37260
C1695       C  0.13699530  0.60629126  0.85522248    -0.03930
C1696       C  0.13456279  0.57337388  0.84999379    -0.01050
C1697       C  0.14912491  0.55865331  0.82489030     0.03940
C1698       C  0.16794379  0.57521436  0.80480716    -0.03930
C1699       C  0.16945339  0.60730184  0.80813419    -0.01040
C1700       C  0.15438032  0.62272144  0.83242953     0.03940
C1701       C  0.11581818  0.55307874  0.86812822     0.38590
C1702       C  0.18615814  0.62490911  0.78571147     0.38580
C1703       C  0.15971412  0.65578625  0.83432478     0.37000
C1704       C  0.14370331  0.52586049  0.81943331     0.37000
N1705       N  0.16592997  0.68174176  0.83476742    -0.37820
N1706       N  0.13878192  0.49995192  0.81497545    -0.37820
N1707       N  0.19937909  0.63894940  0.76788248    -0.37260
N1708       N  0.10114703  0.53540630  0.88112577    -0.37260
C1709       C  0.31306492  0.92555539  0.69344180    -0.03930
C1710       C  0.30025861  0.90679395  0.67013568    -0.01050
C1711       C  0.31873710  0.89140435  0.64815305     0.03940
C1712       C  0.35122810  0.89536628  0.64821809    -0.03930
C1713       C  0.36278798  0.91852011  0.66936283    -0.01040
C1714       C  0.34450804  0.93096468  0.69301342     0.03940
C1715       C  0.26750764  0.90327933  0.66825687     0.38590
C1716       C  0.39281226  0.93212315  0.66687572     0.38580
C1717       C  0.35801478  0.95124962  0.71608838     0.37000
C1718       C  0.30263943  0.87464569  0.62430957     0.37000
N1719       N  0.36878392  0.96734548  0.73441477    -0.37820
N1720       N  0.28790146  0.86278689  0.60566444    -0.37820
N1721       N  0.41532889  0.94611058  0.66648897    -0.37260
N1722       N  0.24158546  0.89999783  0.66515057    -0.37260
C1723       C  0.14428730  0.90556002  0.63856577    -0.03930
C1724       C  0.16520253  0.89646325  0.66155282    -0.01050
C1725       C  0.17651984  0.91822398  0.68296902     0.03940
C1726       C  0.17207380  0.94985288  0.67887535    -0.03930
C1727       C  0.15614459  0.95989838  0.65379236    -0.01040
C1728       C  0.14431873  0.93837315  0.63261580     0.03940
C1729       C  0.17703780  0.86558789  0.66345636     0.38590
C1730       C  0.15270739  0.99285932  0.64932429     0.38580
C1731       C  0.13967012  0.95124307  0.60287916     0.37000
C1732       C  0.19239838  0.90787604  0.70984265     0.37000
N1733       N  0.13819333  0.96381524  0.58002238    -0.37820
N1734       N  0.20493671  0.89969760  0.73126729    -0.37820
N1735       N  0.14999967  0.51903205  0.64575050    -0.37260
N1736       N  0.18946499  0.84239649  0.66631456    -0.37260
Zn1737     Zn  0.70431142  0.49614211  0.25880691     1.49720
Zn1738     Zn  0.74952040  0.49826775  0.20689732     1.49360
Zn1739     Zn  0.75227438  0.04766986  0.25839427     1.49110
Zn1740     Zn  0.77433038  0.47796657  0.27307427     1.49480
O1741       O  0.74613080  0.00444619  0.25027059    -1.82720
O1742       O  0.68426165  0.47260463  0.22609592    -0.73350
O1743       O  0.77417534  0.03121595  0.18778091    -0.73170
O1744       O  0.71555414  0.06846249  0.27813747    -0.72690
O1745       O  0.71060266  0.48742609  0.18592070    -0.73360
O1746       O  0.68028773  0.03229945  0.27244895    -0.72960
O1747       O  0.77466013  0.06738791  0.22380223    -0.73550
O1748       O  0.80487772  0.50722666  0.29728693    -0.72940
O1749       O  0.77449999  0.46219647  0.19821799    -0.73690
O1750       O  0.78375600  0.05275657  0.28878415    -0.73080
O1751       O  0.79714069  0.44966395  0.24132959    -0.73550
O1752       O  0.74826237  0.45091766  0.30253678    -0.73460
O1753       O  0.70187733  0.46827386  0.29217844    -0.73250
C1754       C  0.68919809  0.47193841  0.19784597     0.78540
C1755       C  0.78423345  0.05666938  0.19840136     0.79030
C1756       C  0.68868180  0.05832626  0.28308843     0.77990
C1757       C  0.80409139  0.03666723  0.30093496     0.78370
C1758       C  0.79335377  0.44611113  0.21255139     0.79500
C1759       C  0.71935041  0.45116455  0.30699203     0.78550
Zn1760     Zn  0.99924552  0.25675992  0.20597416     1.49720
Zn1761     Zn  0.99696896  0.20968191  0.25444586     1.49360
Zn1762     Zn  0.54960910  0.25744011  0.25415436     1.49110
Zn1763     Zn  0.98090433  0.28092313  0.27525255     1.49480
O1764       O  0.00605142  0.25225424  0.24870059    -1.82720
O1765       O  0.97945093  0.22182306  0.18308152    -0.73350
O1766       O  0.53095970  0.18726725  0.27433164    -0.73170
O1767       O  0.56984416  0.27870361  0.21887890    -0.72690
O1768       O  0.97517524  0.18888558  0.22028813    -0.73360
O1769       O  0.53288127  0.27798997  0.18494986    -0.72960
O1770       O  0.57009906  0.21926440  0.26967277    -0.73550
O1771       O  0.01175745  0.30709055  0.30323888    -0.72940
O1772       O  0.96579534  0.20745772  0.28445102    -0.73690
O1773       O  0.55600870  0.28749918  0.28756905    -0.73080
O1774       O  0.95132456  0.25321407  0.30231021    -0.73550
O1775       O  0.95566479  0.30990197  0.24601607    -0.73460
O1776       O  0.96886160  0.28731455  0.20273871    -0.73250
C1777       C  0.96829517  0.19729713  0.19377824     0.78540
C1778       C  0.55837174  0.19481103  0.28032405     0.79030
C1779       C  0.55883959  0.28743860  0.19377093     0.77990
C1780       C  0.54102742  0.30566925  0.30470451     0.78370
C1781       C  0.94959700  0.22361554  0.30211950     0.79500
C1782       C  0.95395240  0.30764302  0.21690412     0.78550
Zn1783     Zn  0.75379961  0.20234492  0.49716477     1.49720
Zn1784     Zn  0.70657044  0.25231484  0.49285670     1.49360
Zn1785     Zn  0.74826427  0.25234338  0.04681805     1.49110
Zn1786     Zn  0.77422801  0.27190735  0.48061442     1.49480
O1787       O  0.74759243  0.24482521  0.50408556    -1.82720
O1788       O  0.71757428  0.18258475  0.47768494    -0.73350
O1789       O  0.68909396  0.28525957  0.02031523    -0.73170
O1790       O  0.76858366  0.21782446  0.06873179    -0.72690
O1791       O  0.68019462  0.21524042  0.48823669    -0.73360
O1792       O  0.77357031  0.18258868  0.03177378    -0.72960
O1793       O  0.70948450  0.26976156  0.06351416    -0.73550
O1794       O  0.80253474  0.29488614  0.51338514    -0.72940
O1795       O  0.70669916  0.26716145  0.45150319    -0.73690
O1796       O  0.77705314  0.28517306  0.05561397    -0.73080
O1797       O  0.74309330  0.30168353  0.45792353    -0.73550
O1798       O  0.80018413  0.24285515  0.45049197    -0.73460
O1799       O  0.78452906  0.19741793  0.46658911    -0.73250
C1800       C  0.69008927  0.19114450  0.47482140     0.78540
C1801       C  0.69177425  0.28733453  0.04898302     0.79030
C1802       C  0.77986982  0.19292846  0.05814292     0.77990
C1803       C  0.79928148  0.29772450  0.04240883     0.78370
C1804       C  0.71667124  0.29396756  0.44733116     0.79500
C1805       C  0.80080613  0.21316760  0.44909222     0.78550
Zn1806     Zn  0.95034748  0.99740891  0.99614568     1.49720
Zn1807     Zn  0.49992486  0.44828648  0.99871646     1.49360
Zn1808     Zn  0.50237475  0.99810113  0.44976485     1.49110
Zn1809     Zn  0.51730054  0.01895190  0.02036609     1.49480
O1810       O  0.49344657  0.99147228  0.99174219    -1.82720
O1811       O  0.92909154  0.46387750  0.01871989    -0.73350
O1812       O  0.51478972  0.42339806  0.46236294    -0.73170
O1813       O  0.96843312  0.02101094  0.42830078    -0.72690
O1814       O  0.96629438  0.43038510  0.02405652    -0.73360
O1815       O  0.93011656  0.01869811  0.46114583    -0.72960
O1816       O  0.52174083  0.46087460  0.42957371    -0.73550
O1817       O  0.54454997  0.04786990  0.99451887    -0.72940
O1818       O  0.53435264  0.44537389  0.02622753    -0.73690
O1819       O  0.53478110  0.02863999  0.44827434    -0.73080
O1820       O  0.54506207  0.99154311  0.04651746    -0.73550
O1821       O  0.48747080  0.04507139  0.04813878    -0.73460
O1822       O  0.94543895  0.02841273  0.02685601    -0.73250
C1823       C  0.94024927  0.44062876  0.03180730     0.78540
C1824       C  0.52649265  0.43334935  0.43793026     0.79030
C1825       C  0.94189274  0.02925959  0.43699278     0.77990
C1826       C  0.54858283  0.04749580  0.46571894     0.78370
C1827       C  0.54934267  0.46242556  0.04446118     0.79500
C1828       C  0.95831916  0.04545046  0.04628124     0.78550
C1829       C  0.87456952  0.37466169  0.12908238    -0.01080
C1830       C  0.87794230  0.12967878  0.37033277    -0.01080
C1831       C  0.63304139  0.37506602  0.37626027    -0.01080
C1832       C  0.61708980  0.12547707  0.37983330    -0.01080
C1833       C  0.87514735  0.12437107  0.12461418    -0.01080
C1834       C  0.62318217  0.38100151  0.12097571    -0.01080
C1835       C  0.57077011  0.44600173  0.06429372    -0.03930
C1836       C  0.59175202  0.42578981  0.05070260    -0.01050
C1837       C  0.60445965  0.40122073  0.06693159     0.03940
C1838       C  0.60127448  0.40001120  0.09937422    -0.03930
C1839       C  0.57900437  0.42090243  0.11260787    -0.01040
C1840       C  0.56441572  0.44353231  0.09517395     0.03940
C1841       C  0.60277397  0.43295094  0.02060589     0.38590
C1842       C  0.56929171  0.41972161  0.14394986     0.38580
C1843       C  0.54240802  0.46447561  0.10905124     0.37000
C1844       C  0.61661177  0.37626378  0.04848446     0.37000
N1845       N  0.52493436  0.48114566  0.12008105    -0.37820
N1846       N  0.62482170  0.35665839  0.03232133    -0.37820
N1847       N  0.55880174  0.42044500  0.16806014    -0.37260
N1848       N  0.61171345  0.44032629  0.49713291    -0.37260
C1849       C  0.89738355  0.10610532  0.10112586    -0.03930
C1850       C  0.93027344  0.11015149  0.10007240    -0.01050
C1851       C  0.94959029  0.08812989  0.08595575     0.03940
C1852       C  0.93769981  0.06585894  0.06566781    -0.03930
C1853       C  0.90534698  0.06528017  0.06154372    -0.01040
C1854       C  0.88588986  0.08571778  0.07790275     0.03940
C1855       C  0.94529442  0.13951533  0.10618365     0.38590
C1856       C  0.89082578  0.04315457  0.04080631     0.38580
C1857       C  0.85444548  0.08630612  0.06799419     0.37000
C1858       C  0.98222075  0.08991458  0.09152466     0.37000
N1859       N  0.83052291  0.08572940  0.05697550    -0.37820
N1860       N  0.50811624  0.09154341  0.09625917    -0.37820
N1861       N  0.87893564  0.02591795  0.02425494    -0.37260
N1862       N  0.95868207  0.16238797  0.10947351    -0.37260
C1863       C  0.56648929  0.07128818  0.44985837    -0.03930
C1864       C  0.55046331  0.09070258  0.43065970    -0.01050
C1865       C  0.56537746  0.10682523  0.40734006     0.03940
C1866       C  0.59790310  0.10465241  0.40287537    -0.03930
C1867       C  0.61389226  0.08634100  0.42495468    -0.01040
C1868       C  0.59815409  0.06967650  0.44756281     0.03940
C1869       C  0.51782181  0.09424454  0.43570869     0.38590
C1870       C  0.64664121  0.08200760  0.42368653     0.38580
C1871       C  0.61444466  0.04963124  0.46786771     0.37000
C1872       C  0.54619576  0.12763754  0.39100860     0.37000
N1873       N  0.62740598  0.03366975  0.98406939    -0.37820
N1874       N  0.52992098  0.14440028  0.37921335    -0.37820
N1875       N  0.67246940  0.07681671  0.42390333    -0.37260
N1876       N  0.49202884  0.09673299  0.44052720    -0.37260
C1877       C  0.60650431  0.39412702  0.39313997    -0.03930
C1878       C  0.58394781  0.41119955  0.37683166    -0.01050
C1879       C  0.55581304  0.41968453  0.39035609     0.03940
C1880       C  0.55030271  0.41478715  0.42132667    -0.03930
C1881       C  0.57319878  0.40009354  0.43815315    -0.01040
C1882       C  0.60215766  0.39423357  0.42525474     0.03940
C1883       C  0.59152558  0.42745098  0.34944900     0.38590
C1884       C  0.56717216  0.39036196  0.46887977     0.38580
C1885       C  0.62783815  0.39344998  0.44592315     0.37000
C1886       C  0.53246773  0.43413518  0.37217551     0.37000
N1887       N  0.64811386  0.39300103  0.46268120    -0.37820
N1888       N  0.51391100  0.44562808  0.35768044    -0.37820
N1889       N  0.56193050  0.38172222  0.99301595    -0.37260
N1890       N  0.59628776  0.44254809  0.32859244    -0.37260
C1891       C  0.92586794  0.05450174  0.42060364    -0.03930
C1892       C  0.91440949  0.08019452  0.43696335    -0.01050
C1893       C  0.89849691  0.10410940  0.42232085     0.03940
C1894       C  0.89812624  0.10605554  0.38963850    -0.03930
C1895       C  0.91395042  0.08120227  0.37371257    -0.01040
C1896       C  0.92522501  0.05514249  0.38889634     0.03940
C1897       C  0.92051132  0.08325898  0.46927556     0.38590
C1898       C  0.92086489  0.08233698  0.34153522     0.38580
C1899       C  0.93638792  0.02866922  0.37159949     0.37000
C1900       C  0.88116950  0.12405600  0.44257935     0.37000
N1901       N  0.94508657  0.50747914  0.35787513    -0.37820
N1902       N  0.86753531  0.13835600  0.46037450    -0.37820
N1903       N  0.92814699  0.08189595  0.31628011    -0.37260
N1904       N  0.92575426  0.08685723  0.49479849    -0.37260
C1905       C  0.89313672  0.39900174  0.10923912    -0.03930
C1906       C  0.92569148  0.40186318  0.10844267    -0.01050
C1907       C  0.94068882  0.41403247  0.08275521     0.03940
C1908       C  0.92400979  0.42727944  0.05875141    -0.03930
C1909       C  0.89226994  0.43066845  0.06261038    -0.01040
C1910       C  0.87716321  0.41784390  0.08790942     0.03940
C1911       C  0.94456244  0.39714550  0.13491883     0.38590
C1912       C  0.87421295  0.44487291  0.03909387     0.38580
C1913       C  0.84468018  0.42339708  0.09000943     0.37000
C1914       C  0.97374150  0.41260546  0.08151541     0.37000
N1915       N  0.81908350  0.42968807  0.09013099    -0.37820
N1916       N  0.50001736  0.41075033  0.08073231    -0.37820
N1917       N  0.85959423  0.45587526  0.52040699    -0.37260
N1918       N  0.96051901  0.39504785  0.15566656    -0.37260
C1919       C  0.67480937  0.31119289  0.06612307    -0.03930
C1920       C  0.68403387  0.34229216  0.06539685    -0.01050
C1921       C  0.66960741  0.36481576  0.08431860     0.03940
C1922       C  0.64527940  0.35632900  0.10442029    -0.03930
C1923       C  0.64306062  0.32349930  0.10932037    -0.01040
C1924       C  0.65355131  0.30210048  0.08760988     0.03940
C1925       C  0.70843388  0.35107166  0.04492659     0.38590
C1926       C  0.63961767  0.31027518  0.13909996     0.38580
C1927       C  0.64473825  0.26980648  0.08944142     0.37000
C1928       C  0.68154717  0.39584858  0.08316579     0.37000
N1929       N  0.63773804  0.24415055  0.09096133    -0.37820
N1930       N  0.69347352  0.41957149  0.08132388    -0.37820
N1931       N  0.63894929  0.29769494  0.16201133    -0.37260
N1932       N  0.72786455  0.35794627  0.02857455    -0.37260
C1933       C  0.69543111  0.31591151  0.43184123    -0.03930
C1934       C  0.70653175  0.34064004  0.41526329    -0.01050
C1935       C  0.68627078  0.36280351  0.40417325     0.03940
C1936       C  0.65415288  0.35617145  0.39978128    -0.03930
C1937       C  0.64283931  0.33258626  0.41933890    -0.01040
C1938       C  0.66317925  0.31331998  0.43543171     0.03940
C1939       C  0.73908948  0.34461808  0.41073735     0.38590
C1940       C  0.61031455  0.32799423  0.42422162     0.38580
C1941       C  0.65029631  0.29107278  0.45613766     0.37000
C1942       C  0.69805496  0.39396726  0.40683197     0.37000
N1943       N  0.63957971  0.27350880  0.47249784    -0.37820
N1944       N  0.70901174  0.41804942  0.41062807    -0.37820
N1945       N  0.58459567  0.32379535  0.42846827    -0.37260
N1946       N  0.76499624  0.34780678  0.40688550    -0.37260
C1947       C  0.85678031  0.15242140  0.39048735    -0.03930
C1948       C  0.82403351  0.15112049  0.39093073    -0.01050
C1949       C  0.80750492  0.16779096  0.41295723     0.03940
C1950       C  0.81980042  0.19475511  0.42690278    -0.03930
C1951       C  0.85102889  0.20053168  0.42286203    -0.01040
C1952       C  0.86971839  0.17852810  0.40729255     0.03940
C1953       C  0.80527724  0.13584750  0.36796906     0.38590
C1954       C  0.86469451  0.22719628  0.43800502     0.38580
C1955       C  0.90232186  0.18230596  0.41148500     0.37000
C1956       C  0.77885012  0.15440324  0.42283348     0.37000
N1957       N  0.92791551  0.18641623  0.41652073    -0.37820
N1958       N  0.75711129  0.14199748  0.43123780    -0.37820
N1959       N  0.87564844  0.24837949  0.45013012    -0.37260
N1960       N  0.78925926  0.12454647  0.35004149    -0.37260
C1961       C  0.84955556  0.14133284  0.10488285    -0.03930
C1962       C  0.81701572  0.13513982  0.10793599    -0.01050
C1963       C  0.79508946  0.15541991  0.09676161     0.03940
C1964       C  0.80348617  0.17683037  0.07535299    -0.03930
C1965       C  0.83424358  0.17924524  0.06640806    -0.01040
C1966       C  0.85712516  0.16172050  0.08073727     0.03940
C1967       C  0.80444856  0.10475276  0.11362072     0.38590
C1968       C  0.84244537  0.20075247  0.04281803     0.38580
C1969       C  0.88797285  0.16538089  0.06969106     0.37000
C1970       C  0.76298779  0.15156383  0.10429936     0.37000
N1971       N  0.91161704  0.16955334  0.05883063    -0.37820
N1972       N  0.73746674  0.14835570  0.11015046    -0.37820
N1973       N  0.84886361  0.21797354  0.02411425    -0.36860
N1974       N  0.79265458  0.08100520  0.11601225    -0.37260
C1975       C  0.85986581  0.34969555  0.10524317    -0.03930
C1976       C  0.84386261  0.32256250  0.11452034    -0.01050
C1977       C  0.82578356  0.30495195  0.09360244     0.03940
C1978       C  0.82182473  0.31427693  0.06299818    -0.03930
C1979       C  0.84029541  0.33833117  0.05288379    -0.01040
C1980       C  0.86216677  0.35198782  0.07251962     0.03940
C1981       C  0.84663926  0.31038964  0.14471412     0.38590
C1982       C  0.83841073  0.34819084  0.02165225     0.38580
C1983       C  0.89056069  0.35888608  0.05724991     0.37000
C1984       C  0.81110173  0.27708324  0.10434205     0.37000
N1985       N  0.91253578  0.36231529  0.04312113    -0.37820
N1986       N  0.79945761  0.25524337  0.11365401    -0.37820
N1987       N  0.83703000  0.35621769  0.49681201    -0.37260
N1988       N  0.84819388  0.29790468  0.16762151    -0.37260
C1989       C  0.67117661  0.17545631  0.45142476    -0.03930
C1990       C  0.63993903  0.17061805  0.45496636    -0.01050
C1991       C  0.62252400  0.15971428  0.42996928     0.03940
C1992       C  0.63697399  0.14554943  0.40341077    -0.03930
C1993       C  0.66968751  0.14826464  0.40290563    -0.01040
C1994       C  0.68428347  0.16864491  0.42310064     0.03940
C1995       C  0.62539969  0.17849557  0.48369863     0.38590
C1996       C  0.69041147  0.12844843  0.38608255     0.38580
C1997       C  0.71035034  0.18617905  0.41256002     0.37000
C1998       C  0.59018060  0.16601524  0.43193677     0.37000
N1999       N  0.73030660  0.20108642  0.40374420    -0.37820
N2000       N  0.56505594  0.17326245  0.43541944    -0.37820
N2001       N  0.70805198  0.11295498  0.37365088    -0.37260
N2002       N  0.61383083  0.18468093  0.00661677    -0.37260
C2003       C  0.56022479  0.32544536  0.32552280    -0.03930
C2004       C  0.57271588  0.35280107  0.31406336    -0.01050
C2005       C  0.60078761  0.36485522  0.32539232     0.03940
C2006       C  0.61461914  0.35308500  0.35225092    -0.03930
C2007       C  0.60513949  0.32246244  0.35867656    -0.01040
C2008       C  0.57647679  0.31085896  0.34870143     0.03940
C2009       C  0.55756777  0.36760947  0.28902453     0.38590
C2010       C  0.62785127  0.29954557  0.36546963     0.38580
C2011       C  0.56470270  0.28237673  0.36091205     0.37000
C2012       C  0.61814444  0.38404532  0.30500477     0.37000
N2013       N  0.55510034  0.25983578  0.37085204    -0.37820
N2014       N  0.63155444  0.39884905  0.28790388    -0.37820
N2015       N  0.64576212  0.28084263  0.37045026    -0.37260
N2016       N  0.54548634  0.37940418  0.26907047    -0.37260
C2017       C  0.57437189  0.31198810  0.17587769    -0.03930
C2018       C  0.56919928  0.31410735  0.14441840    -0.01050
C2019       C  0.58035994  0.33951107  0.12806816     0.03940
C2020       C  0.60061675  0.36181210  0.14199520    -0.03930
C2021       C  0.60157303  0.36176262  0.17456734    -0.01040
C2022       C  0.59042214  0.33623123  0.19080434     0.03940
C2023       C  0.55523210  0.28836687  0.12788741     0.38590
C2024       C  0.60938673  0.38881843  0.19277400     0.38580
C2025       C  0.59723993  0.33446008  0.22296330     0.37000
C2026       C  0.57200755  0.34066828  0.09628314     0.37000
N2027       N  0.60362081  0.33263515  0.24831248    -0.37820
N2028       N  0.56381365  0.34043219  0.07133756    -0.37820
N2029       N  0.61404943  0.40995309  0.20855841    -0.37260
N2030       N  0.54421554  0.26792173  0.11461407    -0.37260
C2031       C  0.93111135  0.20492730  0.32372501    -0.03930
C2032       C  0.89936290  0.20357215  0.32222689    -0.01050
C2033       C  0.88294947  0.17861819  0.33516605     0.03940
C2034       C  0.89798007  0.15407224  0.35132392    -0.03930
C2035       C  0.93076352  0.15736081  0.35355554    -0.01040
C2036       C  0.94648144  0.18200838  0.33968859     0.03940
C2037       C  0.88359694  0.22754753  0.30608260     0.38590
C2038       C  0.94978315  0.13800295  0.37185860     0.38580
C2039       C  0.97957704  0.18427872  0.34141113     0.37000
C2040       C  0.85039042  0.17834049  0.32965441     0.37000
N2041       N  0.00575650  0.18741278  0.34132881    -0.37820
N2042       N  0.82484008  0.17989132  0.32347683    -0.37820
N2043       N  0.96606394  0.12341850  0.38626904    -0.37260
N2044       N  0.87108529  0.24679544  0.29336210    -0.37260
C2045       C  0.57500846  0.17707773  0.30398801    -0.03930
C2046       C  0.59140432  0.19307012  0.32688208    -0.01050
C2047       C  0.60008655  0.17855567  0.35409971     0.03940
C2048       C  0.59699318  0.14564621  0.35726879    -0.03930
C2049       C  0.57995324  0.12999791  0.33337445    -0.01040
C2050       C  0.56952391  0.14548733  0.30743516     0.03940
C2051       C  0.60118306  0.22457776  0.32167858     0.38590
C2052       C  0.57106854  0.09784962  0.33536529     0.38580
C2053       C  0.55415724  0.12827432  0.28323445     0.37000
C2054       C  0.61390374  0.19880783  0.37679679     0.37000
N2055       N  0.54206525  0.11451780  0.26394166    -0.37820
N2056       N  0.62475683  0.21644764  0.39367488    -0.37820
N2057       N  0.56198982  0.07278360  0.33570371    -0.37260
N2058       N  0.60965876  0.24922942  0.31665960    -0.37260
C2059       C  0.93462657  0.32761190  0.19704785    -0.03930
C2060       C  0.94135304  0.32863947  0.16559643    -0.01050
C2061       C  0.91960694  0.33814482  0.14430674     0.03940
C2062       C  0.89409152  0.35600262  0.15357796    -0.03930
C2063       C  0.88663525  0.35369986  0.18585575    -0.01040
C2064       C  0.90703912  0.34030403  0.20693141     0.03940
C2065       C  0.97195465  0.32252276  0.15460718     0.38590
C2066       C  0.85595670  0.35760806  0.19773784     0.38580
C2067       C  0.89853697  0.33779742  0.23871544     0.37000
C2068       C  0.92485585  0.32886929  0.11302645     0.37000
N2069       N  0.89154503  0.33572553  0.26392811    -0.37820
N2070       N  0.93102794  0.31914653  0.08919759    -0.37820
N2071       N  0.83198193  0.35876691  0.20868798    -0.37260
N2072       N  0.49627716  0.31863303  0.14530835    -0.37260
C2073       C  0.89647933  0.14556640  0.14571254    -0.03930
C2074       C  0.89766424  0.17869619  0.14554845    -0.01050
C2075       C  0.92154924  0.19515535  0.16045913     0.03940
C2076       C  0.94447010  0.17961295  0.17655679    -0.03930
C2077       C  0.94198160  0.14762553  0.17969215    -0.01040
C2078       C  0.91797221  0.13094522  0.16566564     0.03940
C2079       C  0.87358155  0.19737905  0.13326268     0.38590
C2080       C  0.96533333  0.13121288  0.19629491     0.38580
C2081       C  0.91770884  0.09814988  0.17129328     0.37000
C2082       C  0.92166953  0.22866572  0.16002546     0.37000
N2083       N  0.91964915  0.07258600  0.17794024    -0.37820
N2084       N  0.92133597  0.25529067  0.15944357    -0.37820
N2085       N  0.98381182  0.11807399  0.20945240    -0.37260
N2086       N  0.85486405  0.21388806  0.12498796    -0.37260
C2087       C  0.70356213  0.43131808  0.32911773    -0.03930
C2088       C  0.70120449  0.39952105  0.32379327    -0.01050
C2089       C  0.67819781  0.38209674  0.33822383     0.03940
C2090       C  0.65617116  0.39634846  0.35831848    -0.03930
C2091       C  0.66080249  0.42872085  0.36509018    -0.01040
C2092       C  0.68426009  0.44548773  0.35059618     0.03940
C2093       C  0.72242151  0.38468292  0.30292006     0.38590
C2094       C  0.64532885  0.44489869  0.38977305     0.38580
C2095       C  0.69022425  0.47748687  0.35925302     0.37000
C2096       C  0.67801941  0.34914837  0.33204879     0.37000
N2097       N  0.69530005  0.00279366  0.36637256    -0.37820
N2098       N  0.67893898  0.32310221  0.32610363    -0.37820
N2099       N  0.63370613  0.45882920  0.40920627    -0.37260
N2100       N  0.73944686  0.37271399  0.28650617    -0.37260
C2101       C  0.80949532  0.07290131  0.18205784    -0.03930
C2102       C  0.81322665  0.10490644  0.18531156    -0.01050
C2103       C  0.83749198  0.12017816  0.17070942     0.03940
C2104       C  0.85674786  0.10442419  0.14871020    -0.03930
C2105       C  0.85486736  0.07138751  0.14856257    -0.01040
C2106       C  0.83174659  0.05610032  0.16528704     0.03940
C2107       C  0.79065358  0.12294145  0.20207159     0.38590
C2108       C  0.87678608  0.05181955  0.13303120     0.38580
C2109       C  0.83083039  0.02263183  0.16457079     0.37000
C2110       C  0.84017736  0.15280288  0.17789050     0.37000
N2111       N  0.83032257  0.99599943  0.16343656    -0.37820
N2112       N  0.84046480  0.17830931  0.18603572    -0.37820
N2113       N  0.89395372  0.03468695  0.12217842    -0.37260
N2114       N  0.77268256  0.13739191  0.21518779    -0.37260
C2115       C  0.82745387  0.05484713  0.31816162    -0.03930
C2116       C  0.82623681  0.05678731  0.34976696    -0.01050
C2117       C  0.84130006  0.08106450  0.36581972     0.03940
C2118       C  0.85831105  0.10510504  0.35041402    -0.03930
C2119       C  0.85970383  0.10167924  0.31778079    -0.01040
C2120       C  0.84477122  0.07677636  0.30243598     0.03940
C2121       C  0.80766992  0.03450052  0.36578401     0.38590
C2122       C  0.87761126  0.12160835  0.29858184     0.38580
C2123       C  0.84741589  0.07327016  0.26961820     0.37000
C2124       C  0.83640573  0.08187805  0.39844253     0.37000
N2125       N  0.84983859  0.07038090  0.24357783    -0.37820
N2126       N  0.83086052  0.08139471  0.42411415    -0.37820
N2127       N  0.89174692  0.13622802  0.28188966    -0.37260
N2128       N  0.79279374  0.01681805  0.37848362    -0.37260
C2129       C  0.63699793  0.10629013  0.35522226    -0.03930
C2130       C  0.63456818  0.07337208  0.34999676    -0.01050
C2131       C  0.64913430  0.05864985  0.32489662     0.03940
C2132       C  0.66794976  0.07521102  0.30481049    -0.03930
C2133       C  0.66945539  0.10729896  0.30813352    -0.01040
C2134       C  0.65438189  0.12271951  0.33242798     0.03940
C2135       C  0.61582187  0.05307774  0.36813042     0.38590
C2136       C  0.68615664  0.12490549  0.28570774     0.38580
C2137       C  0.65971397  0.15578468  0.33432082     0.37000
C2138       C  0.64372042  0.02585482  0.31944610     0.37000
N2139       N  0.66592838  0.18174053  0.33476160    -0.37820
N2140       N  0.63880479  0.99994444  0.31499305    -0.37820
N2141       N  0.69937466  0.13894514  0.26787614    -0.37260
N2142       N  0.60114941  0.03540595  0.38112740    -0.37260
C2143       C  0.81306173  0.42555593  0.19344333    -0.03930
C2144       C  0.80025587  0.40679423  0.17013720    -0.01050
C2145       C  0.81873467  0.39140462  0.14815481     0.03940
C2146       C  0.85122566  0.39536667  0.14822010    -0.03930
C2147       C  0.86278526  0.41852034  0.16936520    -0.01040
C2148       C  0.84450488  0.43096507  0.19301547     0.03940
C2149       C  0.76750496  0.40327952  0.16825796     0.38590
C2150       C  0.89280982  0.43212291  0.16687898     0.38580
C2151       C  0.85801122  0.45124996  0.21609069     0.37000
C2152       C  0.80263725  0.37464593  0.12431116     0.37000
N2153       N  0.86878003  0.46734579  0.23441731    -0.37820
N2154       N  0.78789945  0.36278711  0.10566592    -0.37820
N2155       N  0.91532667  0.44611001  0.16649309    -0.37260
N2156       N  0.74158287  0.39999781  0.16515119    -0.37260
C2157       C  0.64428584  0.40555988  0.13856417    -0.03930
C2158       C  0.66520084  0.39646380  0.16155165    -0.01050
C2159       C  0.67651773  0.41822513  0.18296749     0.03940
C2160       C  0.67207176  0.44985389  0.17887281    -0.03930
C2161       C  0.65614300  0.45989867  0.15378927    -0.01040
C2162       C  0.64431738  0.43837283  0.13261322     0.03940
C2163       C  0.67703588  0.36558843  0.16345627     0.38590
C2164       C  0.65270602  0.49285947  0.14932011     0.38580
C2165       C  0.63966925  0.45124189  0.10287612     0.37000
C2166       C  0.69239548  0.40787798  0.20984192     0.37000
N2167       N  0.63819302  0.46381345  0.08001897    -0.37820
N2168       N  0.70493312  0.39970015  0.23126722    -0.37820
N2169       N  0.65000089  0.01903203  0.14575555    -0.37260
N2170       N  0.68946278  0.34239701  0.16631538    -0.37260
Zn2171     Zn  0.70431141  0.49614212  0.75880687     1.49720
Zn2172     Zn  0.74952041  0.49826774  0.70689729     1.49360
Zn2173     Zn  0.75227437  0.04766986  0.75839432     1.49110
Zn2174     Zn  0.77433037  0.47796655  0.77307425     1.49480
O2175       O  0.74613080  0.00444618  0.75027064    -1.82720
O2176       O  0.68426166  0.47260461  0.72609589    -0.73350
O2177       O  0.77417533  0.03121595  0.68778095    -0.73170
O2178       O  0.71555414  0.06846249  0.77813752    -0.72690
O2179       O  0.71060267  0.48742607  0.68592067    -0.73360
O2180       O  0.68028775  0.03229943  0.77244905    -0.72960
O2181       O  0.77466013  0.06738791  0.72380228    -0.73550
O2182       O  0.80487771  0.50722664  0.79728691    -0.72940
O2183       O  0.77450000  0.46219647  0.69821797    -0.73690
O2184       O  0.78375599  0.05275657  0.78878419    -0.73080
O2185       O  0.79714067  0.44966393  0.74132957    -0.73550
O2186       O  0.74826234  0.45091767  0.80253676    -0.73460
O2187       O  0.70187730  0.46827389  0.79217842    -0.73250
C2188       C  0.68919811  0.47193839  0.69784594     0.78540
C2189       C  0.78423345  0.05666937  0.69840140     0.79030
C2190       C  0.68868180  0.05832625  0.78308850     0.77990
C2191       C  0.80409140  0.03666724  0.80093499     0.78370
C2192       C  0.79335376  0.44611112  0.71255136     0.79500
C2193       C  0.71935038  0.45116457  0.80699202     0.78550
Zn2194     Zn  0.99924550  0.25675993  0.70597416     1.49720
Zn2195     Zn  0.99696894  0.20968193  0.75444587     1.49360
Zn2196     Zn  0.54960909  0.25744013  0.75415436     1.49110
Zn2197     Zn  0.98090431  0.28092315  0.77525255     1.49480
O2198       O  0.00605140  0.25225426  0.74870059    -1.82720
O2199       O  0.97945091  0.22182307  0.68308153    -0.73350
O2200       O  0.53095968  0.18726727  0.77433165    -0.73170
O2201       O  0.56984414  0.27870362  0.71887890    -0.72690
O2202       O  0.97517522  0.18888559  0.72028815    -0.73360
O2203       O  0.53288125  0.27798998  0.68494986    -0.72960
O2204       O  0.57009904  0.21926441  0.76967277    -0.73550
O2205       O  0.01175744  0.30709057  0.80323887    -0.72940
O2206       O  0.96579532  0.20745774  0.78445103    -0.73690
O2207       O  0.55600869  0.28749920  0.78756904    -0.73080
O2208       O  0.95132455  0.25321410  0.80231021    -0.73550
O2209       O  0.95566478  0.30990199  0.74601606    -0.73460
O2210       O  0.96886158  0.28731457  0.70273871    -0.73250
C2211       C  0.96829515  0.19729714  0.69377826     0.78540
C2212       C  0.55837172  0.19481104  0.78032406     0.79030
C2213       C  0.55883958  0.28743860  0.69377093     0.77990
C2214       C  0.54102741  0.30566927  0.80470451     0.78370
C2215       C  0.94959698  0.22361557  0.80211951     0.79500
C2216       C  0.95395238  0.30764304  0.71690412     0.78550
Zn2217     Zn  0.75379960  0.20234496  0.99716477     1.49720
Zn2218     Zn  0.70657045  0.25231489  0.99285670     1.49360
Zn2219     Zn  0.74826427  0.25234334  0.54681805     1.49110
Zn2220     Zn  0.77422802  0.27190739  0.98061443     1.49480
O2221       O  0.74759244  0.24482525  0.00408556    -1.82720
O2222       O  0.71757427  0.18258481  0.97768493    -0.73350
O2223       O  0.68909394  0.28525951  0.52031522    -0.73170
O2224       O  0.76858365  0.21782443  0.56873180    -0.72690
O2225       O  0.68019462  0.21524048  0.98823669    -0.73360
O2226       O  0.77357032  0.18258865  0.53177378    -0.72960
O2227       O  0.70948449  0.26976153  0.56351416    -0.73550
O2228       O  0.80253475  0.29488617  0.01338515    -0.72940
O2229       O  0.70669918  0.26716150  0.95150319    -0.73690
O2230       O  0.77705313  0.28517303  0.55561396    -0.73080
O2231       O  0.74309331  0.30168358  0.95792354    -0.73550
O2232       O  0.80018413  0.24285519  0.95049198    -0.73460
O2233       O  0.78452905  0.19741797  0.96658911    -0.73250
C2234       C  0.69008927  0.19114456  0.97482140     0.78540
C2235       C  0.69177423  0.28733449  0.54898302     0.79030
C2236       C  0.77986982  0.19292843  0.55814293     0.77990
C2237       C  0.79928147  0.29772447  0.54240882     0.78370
C2238       C  0.71667126  0.29396762  0.94733117     0.79500
C2239       C  0.80080613  0.21316764  0.94909222     0.78550
Zn2240     Zn  0.95034748  0.99740890  0.49614569     1.49720
Zn2241     Zn  0.49992487  0.44828648  0.49871644     1.49360
Zn2242     Zn  0.50237476  0.99810114  0.94976484     1.49110
Zn2243     Zn  0.51730054  0.01895191  0.52036609     1.49480
O2244       O  0.49344657  0.99147228  0.49174220    -1.82720
O2245       O  0.92909155  0.46387750  0.51871987    -0.73350
O2246       O  0.51478970  0.42339805  0.96236296    -0.73170
O2247       O  0.96843313  0.02101096  0.92830077    -0.72690
O2248       O  0.96629439  0.43038510  0.52405649    -0.73360
O2249       O  0.93011656  0.01869812  0.96114581    -0.72960
O2250       O  0.52174080  0.46087458  0.92957372    -0.73550
O2251       O  0.54454997  0.04786989  0.49451886    -0.72940
O2252       O  0.53435264  0.44537389  0.52622751    -0.73690
O2253       O  0.53478110  0.02864001  0.94827434    -0.73080
O2254       O  0.54506206  0.99154312  0.54651748    -0.73550
O2255       O  0.48747080  0.04507141  0.54813878    -0.73460
O2256       O  0.94543894  0.02841272  0.52685603    -0.73250
C2257       C  0.94024927  0.44062876  0.53180728     0.78540
C2258       C  0.52649263  0.43334933  0.93793028     0.79030
C2259       C  0.94189275  0.02925960  0.93699277     0.77990
C2260       C  0.54858283  0.04749582  0.96571895     0.78370
C2261       C  0.54934268  0.46242556  0.54446116     0.79500
C2262       C  0.95831916  0.04545047  0.54628124     0.78550
C2263       C  0.87456951  0.37466168  0.62908236    -0.01080
C2264       C  0.87794229  0.12967880  0.87033278    -0.01080
C2265       C  0.63304137  0.37506604  0.87626028    -0.01080
C2266       C  0.61708978  0.12547711  0.87983332    -0.01080
C2267       C  0.87514734  0.12437105  0.62461421    -0.01080
C2268       C  0.62318217  0.38100149  0.62097569    -0.01080
C2269       C  0.57077012  0.44600172  0.56429370    -0.03930
C2270       C  0.59175202  0.42578979  0.55070258    -0.01050
C2271       C  0.60445965  0.40122071  0.56693157     0.03940
C2272       C  0.60127448  0.40001119  0.59937420    -0.03930
C2273       C  0.57900438  0.42090242  0.61260785    -0.01040
C2274       C  0.56441574  0.44353230  0.59517393     0.03940
C2275       C  0.60277397  0.43295092  0.52060587     0.38590
C2276       C  0.56929172  0.41972160  0.64394984     0.38580
C2277       C  0.54240804  0.46447561  0.60905123     0.37000
C2278       C  0.61661177  0.37626376  0.54848444     0.37000
N2279       N  0.52493438  0.48114566  0.62008103    -0.37820
N2280       N  0.62482170  0.35665836  0.53232131    -0.37820
N2281       N  0.55880174  0.42044499  0.66806012    -0.37260
N2282       N  0.61171345  0.44032631  0.99713293    -0.37260
C2283       C  0.89738354  0.10610531  0.60112588    -0.03930
C2284       C  0.93027343  0.11015147  0.60007242    -0.01050
C2285       C  0.94959028  0.08812987  0.58595577     0.03940
C2286       C  0.93769980  0.06585895  0.56566781    -0.03930
C2287       C  0.90534697  0.06528018  0.56154371    -0.01040
C2288       C  0.88588984  0.08571777  0.57790278     0.03940
C2289       C  0.94529441  0.13951531  0.60618367     0.38590
C2290       C  0.89082577  0.04315462  0.54080626     0.38580
C2291       C  0.85444545  0.08630609  0.56799425     0.37000
C2292       C  0.98222074  0.08991454  0.59152471     0.37000
N2293       N  0.83052287  0.08572933  0.55697558    -0.37820
N2294       N  0.50811622  0.09154338  0.59625922    -0.37820
N2295       N  0.87893564  0.02591803  0.52425485    -0.37260
N2296       N  0.95868206  0.16238795  0.60947354    -0.37260
C2297       C  0.56648928  0.07128821  0.94985838    -0.03930
C2298       C  0.55046330  0.09070261  0.93065972    -0.01050
C2299       C  0.56537745  0.10682527  0.90734008     0.03940
C2300       C  0.59790308  0.10465246  0.90287540    -0.03930
C2301       C  0.61389225  0.08634106  0.92495472    -0.01040
C2302       C  0.59815408  0.06967655  0.94756285     0.03940
C2303       C  0.51782179  0.09424455  0.93570869     0.38590
C2304       C  0.64664120  0.08200768  0.92368658     0.38580
C2305       C  0.61444465  0.04963131  0.96786775     0.37000
C2306       C  0.54619575  0.12763757  0.89100862     0.37000
N2307       N  0.62740598  0.03366967  0.48406934    -0.37820
N2308       N  0.52992097  0.14440031  0.87921336    -0.37820
N2309       N  0.67246940  0.07681682  0.92390338    -0.37260
N2310       N  0.49202882  0.09673299  0.94052720    -0.37260
C2311       C  0.60650428  0.39412703  0.89313998    -0.03930
C2312       C  0.58394777  0.41119953  0.87683167    -0.01050
C2313       C  0.55581299  0.41968450  0.89035610     0.03940
C2314       C  0.55030268  0.41478713  0.92132668    -0.03930
C2315       C  0.57319876  0.40009354  0.93815316    -0.01040
C2316       C  0.60215764  0.39423359  0.92525475     0.03940
C2317       C  0.59152551  0.42745096  0.84944899     0.38590
C2318       C  0.56717216  0.39036197  0.96887979     0.38580
C2319       C  0.62783814  0.39345002  0.94592315     0.37000
C2320       C  0.53246767  0.43413513  0.87217553     0.37000
N2321       N  0.64811386  0.39300108  0.96268120    -0.37820
N2322       N  0.51391093  0.44562800  0.85768045    -0.37820
N2323       N  0.56193049  0.38172220  0.49301593    -0.37260
N2324       N  0.59628767  0.44254805  0.82859242    -0.37260
C2325       C  0.92586795  0.05450175  0.92060364    -0.03930
C2326       C  0.91440949  0.08019453  0.93696335    -0.01050
C2327       C  0.89849690  0.10410941  0.92232086     0.03940
C2328       C  0.89812624  0.10605557  0.88963851    -0.03930
C2329       C  0.91395043  0.08120230  0.87371257    -0.01040
C2330       C  0.92522502  0.05514252  0.88889633     0.03940
C2331       C  0.92051130  0.08325898  0.96927557     0.38590
C2332       C  0.92086490  0.08233702  0.84153522     0.38580
C2333       C  0.93638794  0.02866925  0.87159948     0.37000
C2334       C  0.88116950  0.12405602  0.94257936     0.37000
N2335       N  0.94508655  0.50747910  0.85787514    -0.37820
N2336       N  0.86753531  0.13835601  0.96037451    -0.37820
N2337       N  0.92814699  0.08189599  0.81628011    -0.37260
N2338       N  0.92575422  0.08685721  0.99479850    -0.37260
C2339       C  0.89313671  0.39900173  0.60923909    -0.03930
C2340       C  0.92569147  0.40186318  0.60844265    -0.01050
C2341       C  0.94068882  0.41403247  0.58275519     0.03940
C2342       C  0.92400979  0.42727943  0.55875138    -0.03930
C2343       C  0.89226994  0.43066843  0.56261034    -0.01040
C2344       C  0.87716320  0.41784388  0.58790938     0.03940
C2345       C  0.94456243  0.39714552  0.63491881     0.38590
C2346       C  0.87421295  0.44487287  0.53909382     0.38580
C2347       C  0.84468017  0.42339706  0.59000939     0.37000
C2348       C  0.97374149  0.41260547  0.58151539     0.37000
N2349       N  0.81908349  0.42968805  0.59013094    -0.37820
N2350       N  0.50001736  0.41075034  0.58073230    -0.37820
N2351       N  0.85959423  0.45587531  0.02040705    -0.37260
N2352       N  0.96051899  0.39504788  0.65566655    -0.37260
C2353       C  0.67480936  0.31119285  0.56612305    -0.03930
C2354       C  0.68403386  0.34229213  0.56539683    -0.01050
C2355       C  0.66960740  0.36481573  0.58431858     0.03940
C2356       C  0.64527939  0.35632897  0.60442027    -0.03930
C2357       C  0.64306061  0.32349927  0.60932035    -0.01040
C2358       C  0.65355129  0.30210045  0.58760987     0.03940
C2359       C  0.70843388  0.35107162  0.54492657     0.38590
C2360       C  0.63961766  0.31027515  0.63909994     0.38580
C2361       C  0.64473822  0.26980645  0.58944140     0.37000
C2362       C  0.68154717  0.39584854  0.58316577     0.37000
N2363       N  0.63773801  0.24415052  0.59096131    -0.37820
N2364       N  0.69347353  0.41957145  0.58132386    -0.37820
N2365       N  0.63894928  0.29769491  0.66201131    -0.37260
N2366       N  0.72786455  0.35794621  0.52857454    -0.37260
C2367       C  0.69543112  0.31591157  0.93184125    -0.03930
C2368       C  0.70653174  0.34064012  0.91526334    -0.01050
C2369       C  0.68627076  0.36280357  0.90417328     0.03940
C2370       C  0.65415287  0.35617148  0.89978129    -0.03930
C2371       C  0.64283931  0.33258628  0.91933891    -0.01040
C2372       C  0.66317926  0.31332002  0.93543171     0.03940
C2373       C  0.73908947  0.34461821  0.91073743     0.38590
C2374       C  0.61031455  0.32799425  0.92422163     0.38580
C2375       C  0.65029633  0.29107280  0.95613765     0.37000
C2376       C  0.69805491  0.39396734  0.90683199     0.37000
N2377       N  0.63957973  0.27350881  0.97249782    -0.37820
N2378       N  0.70901167  0.41804951  0.91062808    -0.37820
N2379       N  0.58459567  0.32379536  0.92846829    -0.37260
N2380       N  0.76499624  0.34780694  0.90688562    -0.37260
C2381       C  0.85678031  0.15242142  0.89048736    -0.03930
C2382       C  0.82403350  0.15112052  0.89093074    -0.01050
C2383       C  0.80750492  0.16779100  0.91295723     0.03940
C2384       C  0.81980042  0.19475514  0.92690278    -0.03930
C2385       C  0.85102889  0.20053171  0.92286204    -0.01040
C2386       C  0.86971839  0.17852812  0.90729257     0.03940
C2387       C  0.80527724  0.13584752  0.86796907     0.38590
C2388       C  0.86469452  0.22719630  0.93800504     0.38580
C2389       C  0.90232186  0.18230597  0.91148502     0.37000
C2390       C  0.77885009  0.15440330  0.92283346     0.37000
N2391       N  0.92791551  0.18641624  0.91652076    -0.37820
N2392       N  0.75711125  0.14199756  0.93123777    -0.37820
N2393       N  0.87564845  0.24837950  0.95013015    -0.37260
N2394       N  0.78925926  0.12454649  0.85004150    -0.37260
C2395       C  0.84955555  0.14133283  0.60488288    -0.03930
C2396       C  0.81701571  0.13513982  0.60793603    -0.01050
C2397       C  0.79508946  0.15541992  0.59676165     0.03940
C2398       C  0.80348617  0.17683035  0.57535300    -0.03930
C2399       C  0.83424357  0.17924521  0.56640807    -0.01040
C2400       C  0.85712515  0.16172047  0.58073729     0.03940
C2401       C  0.80444853  0.10475277  0.61362078     0.38590
C2402       C  0.84244536  0.20075242  0.54281801     0.38580
C2403       C  0.88797284  0.16538086  0.56969107     0.37000
C2404       C  0.76298779  0.15156386  0.60429942     0.37000
N2405       N  0.91161703  0.16955330  0.55883064    -0.37820
N2406       N  0.73746673  0.14835575  0.61015054    -0.37820
N2407       N  0.84886361  0.21797347  0.52411422    -0.36860
N2408       N  0.79265454  0.08100522  0.61601232    -0.37260
C2409       C  0.85986580  0.34969554  0.60524315    -0.03930
C2410       C  0.84386261  0.32256249  0.61452032    -0.01050
C2411       C  0.82578355  0.30495194  0.59360242     0.03940
C2412       C  0.82182472  0.31427691  0.56299817    -0.03930
C2413       C  0.84029541  0.33833114  0.55288378    -0.01040
C2414       C  0.86216677  0.35198780  0.57251959     0.03940
C2415       C  0.84663928  0.31038963  0.64471410     0.38590
C2416       C  0.83841073  0.34819080  0.52165223     0.38580
C2417       C  0.89056069  0.35888606  0.55724989     0.37000
C2418       C  0.81110173  0.27708323  0.60434204     0.37000
N2419       N  0.91253577  0.36231528  0.54312110    -0.37820
N2420       N  0.79945760  0.25524336  0.61365401    -0.37820
N2421       N  0.83703000  0.35621773  0.99681204    -0.37260
N2422       N  0.84819391  0.29790466  0.66762149    -0.37260
C2423       C  0.67117660  0.17545638  0.95142475    -0.03930
C2424       C  0.63993902  0.17061812  0.95496637    -0.01050
C2425       C  0.62252398  0.15971433  0.92996930     0.03940
C2426       C  0.63697398  0.14554949  0.90341078    -0.03930
C2427       C  0.66968750  0.14826471  0.90290563    -0.01040
C2428       C  0.68428345  0.16864499  0.92310063     0.03940
C2429       C  0.62539969  0.17849562  0.98369864     0.38590
C2430       C  0.69041146  0.12844851  0.88608254     0.38580
C2431       C  0.71035032  0.18617913  0.91256001     0.37000
C2432       C  0.59018059  0.16601528  0.93193680     0.37000
N2433       N  0.73030658  0.20108651  0.90374419    -0.37820
N2434       N  0.56505591  0.17326247  0.93541947    -0.37820
N2435       N  0.70805196  0.11295507  0.87365088    -0.37260
N2436       N  0.61383083  0.18468087  0.50661676    -0.37260
C2437       C  0.56022478  0.32544538  0.82552280    -0.03930
C2438       C  0.57271589  0.35280108  0.81406334    -0.01050
C2439       C  0.60078762  0.36485523  0.82539230     0.03940
C2440       C  0.61461914  0.35308501  0.85225092    -0.03930
C2441       C  0.60513946  0.32246246  0.85867658    -0.01040
C2442       C  0.57647677  0.31085899  0.84870144     0.03940
C2443       C  0.55756779  0.36760947  0.78902450     0.38590
C2444       C  0.62785123  0.29954558  0.86546965     0.38580
C2445       C  0.56470266  0.28237677  0.86091207     0.37000
C2446       C  0.61814446  0.38404533  0.80500476     0.37000
N2447       N  0.55510028  0.25983584  0.87085207    -0.37820
N2448       N  0.63155447  0.39884906  0.78790387    -0.37820
N2449       N  0.64576208  0.28084264  0.87045028    -0.37260
N2450       N  0.54548638  0.37940418  0.76907042    -0.37260
C2451       C  0.57437188  0.31198810  0.67587768    -0.03930
C2452       C  0.56919927  0.31410734  0.64441839    -0.01050
C2453       C  0.58035993  0.33951106  0.62806815     0.03940
C2454       C  0.60061675  0.36181209  0.64199518    -0.03930
C2455       C  0.60157303  0.36176261  0.67456733    -0.01040
C2456       C  0.59042214  0.33623122  0.69080432     0.03940
C2457       C  0.55523208  0.28836687  0.62788740     0.38590
C2458       C  0.60938673  0.38881843  0.69277398     0.38580
C2459       C  0.59723995  0.33446008  0.72296328     0.37000
C2460       C  0.57200754  0.34066827  0.59628312     0.37000
N2461       N  0.60362084  0.33263514  0.74831246    -0.37820
N2462       N  0.56381364  0.34043218  0.57133755    -0.37820
N2463       N  0.61404944  0.40995308  0.70855839    -0.37260
N2464       N  0.54421551  0.26792173  0.61461407    -0.37260
C2465       C  0.93111133  0.20492733  0.82372502    -0.03930
C2466       C  0.89936289  0.20357218  0.82222690    -0.01050
C2467       C  0.88294946  0.17861821  0.83516606     0.03940
C2468       C  0.89798006  0.15407227  0.85132393    -0.03930
C2469       C  0.93076351  0.15736084  0.85355555    -0.01040
C2470       C  0.94648142  0.18200841  0.83968860     0.03940
C2471       C  0.88359692  0.22754755  0.80608261     0.38590
C2472       C  0.94978315  0.13800298  0.87185861     0.38580
C2473       C  0.97957703  0.18427877  0.84141115     0.37000
C2474       C  0.85039041  0.17834051  0.82965441     0.37000
N2475       N  0.00575649  0.18741283  0.84132883    -0.37820
N2476       N  0.82484007  0.17989134  0.82347684    -0.37820
N2477       N  0.96606394  0.12341854  0.88626905    -0.37260
N2478       N  0.87108528  0.24679546  0.79336211    -0.37260
C2479       C  0.57500844  0.17707775  0.80398802    -0.03930
C2480       C  0.59140428  0.19307015  0.82688210    -0.01050
C2481       C  0.60008652  0.17855571  0.85409972     0.03940
C2482       C  0.59699316  0.14564624  0.85726881    -0.03930
C2483       C  0.57995322  0.12999794  0.83337447    -0.01040
C2484       C  0.56952390  0.14548736  0.80743517     0.03940
C2485       C  0.60118301  0.22457779  0.82167859     0.38590
C2486       C  0.57106854  0.09784964  0.83536531     0.38580
C2487       C  0.55415723  0.12827434  0.78323447     0.37000
C2488       C  0.61390370  0.19880788  0.87679681     0.37000
N2489       N  0.54206524  0.11451782  0.76394167    -0.37820
N2490       N  0.62475678  0.21644769  0.89367490    -0.37820
N2491       N  0.56198983  0.07278362  0.83570372    -0.37260
N2492       N  0.60965870  0.24922946  0.81665962    -0.37260
C2493       C  0.93462656  0.32761192  0.69704785    -0.03930
C2494       C  0.94135304  0.32863949  0.66559642    -0.01050
C2495       C  0.91960694  0.33814483  0.64430673     0.03940
C2496       C  0.89409152  0.35600262  0.65357794    -0.03930
C2497       C  0.88663524  0.35369987  0.68585573    -0.01040
C2498       C  0.90703910  0.34030404  0.70693139     0.03940
C2499       C  0.97195466  0.32252280  0.65460719     0.38590
C2500       C  0.85595668  0.35760805  0.69773781     0.38580
C2501       C  0.89853694  0.33779742  0.73871542     0.37000
C2502       C  0.92485586  0.32886931  0.61302644     0.37000
N2503       N  0.89154499  0.33572553  0.76392809    -0.37820
N2504       N  0.93102797  0.31914654  0.58919758    -0.37820
N2505       N  0.83198190  0.35876689  0.70868794    -0.37260
N2506       N  0.49627717  0.31863307  0.64530836    -0.37260
C2507       C  0.89647932  0.14556639  0.64571256    -0.03930
C2508       C  0.89766423  0.17869618  0.64554846    -0.01050
C2509       C  0.92154922  0.19515535  0.66045914     0.03940
C2510       C  0.94447009  0.17961295  0.67655680    -0.03930
C2511       C  0.94198159  0.14762553  0.67969217    -0.01040
C2512       C  0.91797220  0.13094521  0.66566567     0.03940
C2513       C  0.87358154  0.19737903  0.63326270     0.38590
C2514       C  0.96533332  0.13121289  0.69629494     0.38580
C2515       C  0.91770884  0.09814988  0.67129330     0.37000
C2516       C  0.92166951  0.22866572  0.66002546     0.37000
N2517       N  0.91964915  0.07258600  0.67794026    -0.37820
N2518       N  0.92133595  0.25529067  0.65944356    -0.37820
N2519       N  0.98381181  0.11807401  0.70945243    -0.37260
N2520       N  0.85486403  0.21388804  0.62498797    -0.37260
C2521       C  0.70356209  0.43131812  0.82911771    -0.03930
C2522       C  0.70120447  0.39952108  0.82379329    -0.01050
C2523       C  0.67819781  0.38209677  0.83822385     0.03940
C2524       C  0.65617113  0.39634848  0.85831848    -0.03930
C2525       C  0.66080243  0.42872089  0.86509015    -0.01040
C2526       C  0.68426002  0.44548777  0.85059614     0.03940
C2527       C  0.72242151  0.38468295  0.80292009     0.38590
C2528       C  0.64532878  0.44489873  0.88977301     0.38580
C2529       C  0.69022415  0.47748692  0.85925295     0.37000
C2530       C  0.67801942  0.34914839  0.83204884     0.37000
N2531       N  0.69530020  0.00279358  0.86637268    -0.37820
N2532       N  0.67893902  0.32310223  0.82610371    -0.37820
N2533       N  0.63370604  0.45882924  0.90920621    -0.37260
N2534       N  0.73944687  0.37271402  0.78650621    -0.37260
C2535       C  0.80949532  0.07290131  0.68205788    -0.03930
C2536       C  0.81322665  0.10490643  0.68531160    -0.01050
C2537       C  0.83749198  0.12017815  0.67070946     0.03940
C2538       C  0.85674785  0.10442418  0.64871023    -0.03930
C2539       C  0.85486734  0.07138750  0.64856260    -0.01040
C2540       C  0.83174658  0.05610031  0.66528707     0.03940
C2541       C  0.79065360  0.12294144  0.70207165     0.38590
C2542       C  0.87678606  0.05181953  0.63303122     0.38580
C2543       C  0.83083037  0.02263182  0.66457081     0.37000
C2544       C  0.84017737  0.15280287  0.67789054     0.37000
N2545       N  0.83032254  0.99599943  0.66343657    -0.37820
N2546       N  0.84046481  0.17830930  0.68603576    -0.37820
N2547       N  0.89395370  0.03468694  0.62217843    -0.37260
N2548       N  0.77268259  0.13739190  0.71518786    -0.37260
C2549       C  0.82745388  0.05484714  0.81816165    -0.03930
C2550       C  0.82623682  0.05678732  0.84976698    -0.01050
C2551       C  0.84130006  0.08106452  0.86581974     0.03940
C2552       C  0.85831105  0.10510506  0.85041403    -0.03930
C2553       C  0.85970383  0.10167926  0.81778081    -0.01040
C2554       C  0.84477122  0.07677637  0.80243601     0.03940
C2555       C  0.80766993  0.03450053  0.86578404     0.38590
C2556       C  0.87761125  0.12160837  0.79858185     0.38580
C2557       C  0.84741590  0.07327017  0.76961822     0.37000
C2558       C  0.83640572  0.08187808  0.89844254     0.37000
N2559       N  0.84983859  0.07038090  0.74357785    -0.37820
N2560       N  0.83086051  0.08139475  0.92411417    -0.37820
N2561       N  0.89174690  0.13622805  0.78188967    -0.37260
N2562       N  0.79279375  0.01681807  0.87848365    -0.37260
C2563       C  0.63699791  0.10629016  0.85522229    -0.03930
C2564       C  0.63456818  0.07337210  0.84999682    -0.01050
C2565       C  0.64913433  0.05864986  0.82489671     0.03940
C2566       C  0.66794977  0.07521102  0.80481056    -0.03930
C2567       C  0.66945536  0.10729897  0.80813355    -0.01040
C2568       C  0.65438186  0.12271953  0.83242799     0.03940
C2569       C  0.61582186  0.05307778  0.86813048     0.38590
C2570       C  0.68615657  0.12490548  0.78570773     0.38580
C2571       C  0.65971393  0.15578470  0.83432080     0.37000
C2572       C  0.64372051  0.02585481  0.81944625     0.37000
N2573       N  0.66592832  0.18174056  0.83476155    -0.37820
N2574       N  0.63880492  0.99994441  0.81499324    -0.37820
N2575       N  0.69937457  0.13894512  0.76787610    -0.37260
N2576       N  0.60114938  0.03540600  0.88112746    -0.37260
C2577       C  0.81306172  0.42555592  0.69344331    -0.03930
C2578       C  0.80025586  0.40679423  0.67013717    -0.01050
C2579       C  0.81873466  0.39140462  0.64815478     0.03940
C2580       C  0.85122565  0.39536667  0.64822007    -0.03930
C2581       C  0.86278525  0.41852034  0.66936517    -0.01040
C2582       C  0.84450488  0.43096506  0.69301544     0.03940
C2583       C  0.76750495  0.40327953  0.66825792     0.38590
C2584       C  0.89280980  0.43212293  0.66687894     0.38580
C2585       C  0.85801122  0.45124994  0.71609068     0.37000
C2586       C  0.80263724  0.37464592  0.62431114     0.37000
N2587       N  0.86878003  0.46734576  0.73441730    -0.37820
N2588       N  0.78789945  0.36278709  0.60566589    -0.37820
N2589       N  0.91532664  0.44611004  0.66649302    -0.37260
N2590       N  0.74158286  0.39999783  0.66515114    -0.37260
C2591       C  0.64428585  0.40555986  0.63856414    -0.03930
C2592       C  0.66520085  0.39646377  0.66155163    -0.01050
C2593       C  0.67651774  0.41822510  0.68296747     0.03940
C2594       C  0.67207177  0.44985387  0.67887278    -0.03930
C2595       C  0.65614302  0.45989865  0.65378924    -0.01040
C2596       C  0.64431739  0.43837281  0.63261319     0.03940
C2597       C  0.67703587  0.36558841  0.66345625     0.38590
C2598       C  0.65270605  0.49285945  0.64932007     0.38580
C2599       C  0.63966926  0.45124186  0.60287609     0.37000
C2600       C  0.69239548  0.40787795  0.70984190     0.37000
N2601       N  0.63819304  0.46381342  0.58001893    -0.37820
N2602       N  0.70493312  0.39970012  0.73126720    -0.37820
N2603       N  0.65000083  0.01903205  0.64575563    -0.37260
N2604       N  0.68946277  0.34239698  0.66631536    -0.37260
Zn2605     Zn  0.70431672  0.99613878  0.25880966     1.49720
Zn2606     Zn  0.74952334  0.99826603  0.20689836     1.49360
Zn2607     Zn  0.75226991  0.54767193  0.25839369     1.49110
Zn2608     Zn  0.77433626  0.97796473  0.27307444     1.49480
O2609       O  0.74612615  0.50444839  0.25026940    -1.82720
O2610       O  0.68426573  0.97260188  0.22609881    -0.73350
O2611       O  0.77417289  0.53121781  0.18778080    -0.73170
O2612       O  0.71554920  0.56846476  0.27813602    -0.72690
O2613       O  0.71060475  0.98742508  0.18592298    -0.73360
O2614       O  0.68028202  0.53230305  0.27244498    -0.72960
O2615       O  0.77465668  0.56738975  0.22380222    -0.73550
O2616       O  0.80488350  0.00722518  0.29728670    -0.72940
O2617       O  0.77450239  0.96219478  0.19821808    -0.73690
O2618       O  0.78375113  0.55275845  0.28878425    -0.73080
O2619       O  0.79714575  0.94966315  0.24132861    -0.73550
O2620       O  0.74827029  0.95091452  0.30253753    -0.73460
O2621       O  0.70188453  0.96826988  0.29218100    -0.73250
C2622       C  0.68920083  0.97193680  0.19784859     0.78540
C2623       C  0.78423085  0.55667113  0.19840170     0.79030
C2624       C  0.68867623  0.55832939  0.28308546     0.77990
C2625       C  0.80408619  0.53666874  0.30093516     0.78370
C2626       C  0.79335734  0.94611005  0.21255064     0.79500
C2627       C  0.71935850  0.95116071  0.30699374     0.78550
Zn2628     Zn  0.99924658  0.75676037  0.20597480     1.49720
Zn2629     Zn  0.99696996  0.70968278  0.25444616     1.49360
Zn2630     Zn  0.54961002  0.75744122  0.25415524     1.49110
Zn2631     Zn  0.98090501  0.78092382  0.27525355     1.49480
O2632       O  0.00605229  0.75225516  0.24870136    -1.82720
O2633       O  0.97945117  0.72182379  0.18308220    -0.73350
O2634       O  0.53096061  0.68726843  0.27433207    -0.73170
O2635       O  0.56984509  0.77870427  0.21887962    -0.72690
O2636       O  0.97517639  0.68888611  0.22028863    -0.73360
O2637       O  0.53288237  0.77799026  0.18495038    -0.72960
O2638       O  0.57009992  0.71926579  0.26967433    -0.73550
O2639       O  0.01175853  0.80709170  0.30323982    -0.72940
O2640       O  0.96579598  0.70745810  0.28445079    -0.73690
O2641       O  0.55600978  0.78750077  0.28756948    -0.73080
O2642       O  0.95132505  0.75321392  0.30231104    -0.73550
O2643       O  0.95566541  0.80990250  0.24601658    -0.73460
O2644       O  0.96886308  0.78731517  0.20273947    -0.73250
C2645       C  0.96829572  0.69729774  0.19377895     0.78540
C2646       C  0.55837249  0.69481227  0.28032515     0.79030
C2647       C  0.55884057  0.78743912  0.19377159     0.77990
C2648       C  0.54102859  0.80567080  0.30470507     0.78370
C2649       C  0.94959746  0.72361532  0.30211960     0.79500
C2650       C  0.95395354  0.80764355  0.21690457     0.78550
Zn2651     Zn  0.75379991  0.70234390  0.49716593     1.49720
Zn2652     Zn  0.70657030  0.75231342  0.49285838     1.49360
Zn2653     Zn  0.74826461  0.75234288  0.04681904     1.49110
Zn2654     Zn  0.77422811  0.77190584  0.48061509     1.49480
O2655       O  0.74759251  0.74482413  0.50408667    -1.82720
O2656       O  0.71757458  0.68258346  0.47768627    -0.73350
O2657       O  0.68909378  0.78525865  0.02031650    -0.73170
O2658       O  0.76858303  0.71782399  0.06873326    -0.72690
O2659       O  0.68019475  0.71523872  0.48823867    -0.73360
O2660       O  0.77357056  0.68258826  0.03177525    -0.72960
O2661       O  0.70948564  0.76976238  0.06351543    -0.73550
O2662       O  0.80253515  0.79488524  0.51338500    -0.72940
O2663       O  0.70669856  0.76715922  0.45150474    -0.73690
O2664       O  0.77705439  0.78517183  0.05561420    -0.73080
O2665       O  0.74309351  0.80168092  0.45792346    -0.73550
O2666       O  0.80018412  0.74285390  0.45049283    -0.73460
O2667       O  0.78452939  0.69741669  0.46659020    -0.73250
C2668       C  0.69008946  0.69114295  0.47482309     0.78540
C2669       C  0.69177484  0.78733467  0.04898418     0.79030
C2670       C  0.77986955  0.69292813  0.05814449     0.77990
C2671       C  0.79928242  0.79772342  0.04240872     0.78370
C2672       C  0.71667139  0.79396481  0.44733140     0.79500
C2673       C  0.80080626  0.71316640  0.44909315     0.78550
Zn2674     Zn  0.95034496  0.49740928  0.99614655     1.49720
Zn2675     Zn  0.49992797  0.94828654  0.99871542     1.49360
Zn2676     Zn  0.50237229  0.49810064  0.44976544     1.49110
Zn2677     Zn  0.51729825  0.51895158  0.02036661     1.49480
O2678       O  0.49344397  0.49147217  0.99174287    -1.82720
O2679       O  0.92909444  0.96387670  0.01871864    -0.73350
O2680       O  0.51479420  0.92339896  0.46236193    -0.73170
O2681       O  0.96843073  0.52101036  0.42830128    -0.72690
O2682       O  0.96629724  0.93038410  0.02405458    -0.73360
O2683       O  0.93011419  0.51869817  0.46114644    -0.72960
O2684       O  0.52174421  0.96087582  0.42957291    -0.73550
O2685       O  0.54454726  0.54786959  0.99451911    -0.72940
O2686       O  0.53435518  0.94537425  0.02622728    -0.73690
O2687       O  0.53477890  0.52863942  0.44827456    -0.73080
O2688       O  0.54506016  0.49154271  0.04651745    -0.73550
O2689       O  0.48746897  0.54507089  0.04813989    -0.73460
O2690       O  0.94543685  0.52841325  0.02685686    -0.73250
C2691       C  0.94025209  0.94062759  0.03180549     0.78540
C2692       C  0.52649701  0.93335072  0.43792939     0.79030
C2693       C  0.94189039  0.52925922  0.43699321     0.77990
C2694       C  0.54858036  0.54749539  0.46571924     0.78370
C2695       C  0.54934477  0.96242598  0.04446124     0.79500
C2696       C  0.95831735  0.54545046  0.04628236     0.78550
C2697       C  0.87457175  0.87466082  0.12908076    -0.01080
C2698       C  0.87794091  0.62967826  0.37033200    -0.01080
C2699       C  0.63304535  0.87506620  0.37626009    -0.01080
C2700       C  0.61708793  0.62547754  0.37983476    -0.01080
C2701       C  0.87514680  0.62437145  0.12461644    -0.01080
C2702       C  0.62318339  0.88100207  0.12097690    -0.01080
C2703       C  0.57077193  0.94600225  0.06429418    -0.03930
C2704       C  0.59175418  0.92579044  0.05070344    -0.01050
C2705       C  0.60446145  0.90122135  0.06693263     0.03940
C2706       C  0.60127604  0.90001198  0.09937525    -0.03930
C2707       C  0.57900580  0.92090324  0.11260860    -0.01040
C2708       C  0.56441703  0.94353279  0.09517433     0.03940
C2709       C  0.60277646  0.93295121  0.02060676     0.38590
C2710       C  0.56929331  0.91972291  0.14395067     0.38580
C2711       C  0.54240870  0.96447570  0.10905117     0.37000
C2712       C  0.61661291  0.87626396  0.04848562     0.37000
N2713       N  0.52493451  0.98114543  0.12008061    -0.37820
N2714       N  0.62482232  0.85665823  0.03232262    -0.37820
N2715       N  0.55880356  0.92044673  0.16806105    -0.37260
N2716       N  0.61171637  0.94032606  0.49713380    -0.37260
C2717       C  0.89738269  0.60610532  0.10112809    -0.03930
C2718       C  0.93027261  0.61015111  0.10007445    -0.01050
C2719       C  0.94958914  0.58812940  0.08595753     0.03940
C2720       C  0.93769833  0.56585879  0.06566943    -0.03930
C2721       C  0.90534547  0.56528014  0.06154579    -0.01040
C2722       C  0.88588864  0.58571780  0.07790510     0.03940
C2723       C  0.94529394  0.63951478  0.10618557     0.38590
C2724       C  0.89082393  0.54315463  0.04080852     0.38580
C2725       C  0.85444420  0.58630632  0.06799674     0.37000
C2726       C  0.98221964  0.58991362  0.09152635     0.37000
N2727       N  0.83052162  0.58572965  0.05697806    -0.37820
N2728       N  0.50811516  0.59154209  0.09626081    -0.37820
N2729       N  0.87893352  0.52591810  0.02425726    -0.37260
N2730       N  0.95868189  0.66238727  0.10947527    -0.37260
C2731       C  0.56648703  0.57128773  0.44985888    -0.03930
C2732       C  0.55046125  0.59070325  0.43066120    -0.01050
C2733       C  0.56537558  0.60682676  0.40734225     0.03940
C2734       C  0.59790102  0.60465264  0.40287646    -0.03930
C2735       C  0.61388997  0.58633970  0.42495459    -0.01040
C2736       C  0.59815174  0.56967521  0.44756269     0.03940
C2737       C  0.51781985  0.59424574  0.43571061     0.38590
C2738       C  0.64663863  0.58200469  0.42368528     0.38580
C2739       C  0.61444212  0.54962925  0.46786706     0.37000
C2740       C  0.54619449  0.62764153  0.39101312     0.37000
N2741       N  0.62740328  0.53366714  0.98406832    -0.37820
N2742       N  0.52992025  0.64440662  0.37922036    -0.37820
N2743       N  0.67246648  0.57681207  0.42390128    -0.37260
N2744       N  0.49202695  0.59673482  0.44052923    -0.37260
C2745       C  0.60650974  0.89412889  0.39314016    -0.03930
C2746       C  0.58395475  0.91120343  0.37683212    -0.01050
C2747       C  0.55581967  0.91968838  0.39035583     0.03940
C2748       C  0.55030795  0.91478945  0.42132597    -0.03930
C2749       C  0.57320334  0.90009486  0.43815266    -0.01040
C2750       C  0.60216239  0.89423450  0.42525477     0.03940
C2751       C  0.59153469  0.92745661  0.34945109     0.38590
C2752       C  0.56717591  0.89036261  0.46887891     0.38580
C2753       C  0.62784247  0.89344941  0.44592362     0.37000
C2754       C  0.53247562  0.93414053  0.37217486     0.37000
N2755       N  0.64811781  0.89299930  0.46268206    -0.37820
N2756       N  0.51391996  0.94563466  0.35767941    -0.37820
N2757       N  0.56193366  0.88172236  0.99301477    -0.37260
N2758       N  0.59629884  0.94255502  0.32859591    -0.37260
C2759       C  0.92586572  0.55450121  0.42060377    -0.03930
C2760       C  0.91440751  0.58019427  0.43696318    -0.01050
C2761       C  0.89849529  0.60410920  0.42232037     0.03940
C2762       C  0.89812444  0.60605483  0.38963795    -0.03930
C2763       C  0.91394792  0.58120094  0.37371228    -0.01040
C2764       C  0.92522256  0.55514141  0.38889644     0.03940
C2765       C  0.92050886  0.58325871  0.46927551     0.38590
C2766       C  0.92086167  0.58233471  0.34153472     0.38580
C2767       C  0.93638532  0.52866780  0.37159999     0.37000
C2768       C  0.88116828  0.62405631  0.44257873     0.37000
N2769       N  0.94508927  0.00748081  0.35787431    -0.37820
N2770       N  0.86753443  0.63835663  0.46037389    -0.37820
N2771       N  0.92814314  0.58189288  0.31627943    -0.37260
N2772       N  0.92575131  0.58685677  0.49479857    -0.37260
C2773       C  0.89313913  0.89900039  0.10923705    -0.03930
C2774       C  0.92569391  0.90186169  0.10844063    -0.01050
C2775       C  0.94069137  0.91403073  0.08275310     0.03940
C2776       C  0.92401245  0.92727774  0.05874924    -0.03930
C2777       C  0.89227259  0.93066676  0.06260806    -0.01040
C2778       C  0.87716574  0.91784237  0.08790710     0.03940
C2779       C  0.94456473  0.89714446  0.13491697     0.38590
C2780       C  0.87421575  0.94487132  0.03909150     0.38580
C2781       C  0.84468272  0.92339571  0.09000697     0.37000
C2782       C  0.97374405  0.91260369  0.08151342     0.37000
N2783       N  0.81908608  0.92968685  0.09012838    -0.37820
N2784       N  0.50001992  0.91074859  0.08073043    -0.37820
N2785       N  0.85959717  0.95587394  0.52040472    -0.37260
N2786       N  0.96052115  0.89504725  0.15566486    -0.37260
C2787       C  0.67481002  0.81119321  0.06612406    -0.03930
C2788       C  0.68403477  0.84229244  0.06539795    -0.01050
C2789       C  0.66960836  0.86481611  0.08431967     0.03940
C2790       C  0.64528037  0.85632943  0.10442140    -0.03930
C2791       C  0.64306136  0.82349975  0.10932141    -0.01040
C2792       C  0.65355188  0.80210092  0.08761086     0.03940
C2793       C  0.70843485  0.85107182  0.04492776     0.38590
C2794       C  0.63961836  0.81027565  0.13910101     0.38580
C2795       C  0.64473863  0.76980697  0.08944238     0.37000
C2796       C  0.68154768  0.89584909  0.08316643     0.37000
N2797       N  0.63773827  0.74415108  0.09096227    -0.37820
N2798       N  0.69347347  0.91957225  0.08132414    -0.37820
N2799       N  0.63894997  0.79769552  0.16201244    -0.37260
N2800       N  0.72786560  0.85794636  0.02857578    -0.37260
C2801       C  0.69543207  0.81590835  0.43184029    -0.03930
C2802       C  0.70653383  0.84063471  0.41526015    -0.01050
C2803       C  0.68627421  0.86279980  0.40417140     0.03940
C2804       C  0.65415577  0.85617022  0.39978073    -0.03930
C2805       C  0.64284105  0.83258579  0.41933866    -0.01040
C2806       C  0.66318017  0.81331891  0.43543176     0.03940
C2807       C  0.73909154  0.84460943  0.41073128     0.38590
C2808       C  0.61031609  0.82799486  0.42422096     0.38580
C2809       C  0.65029644  0.79107306  0.45613863     0.37000
C2810       C  0.69806002  0.89396262  0.40683355     0.37000
N2811       N  0.63957927  0.77351011  0.47249952    -0.37820
N2812       N  0.70901817  0.91804369  0.41063282    -0.37820
N2813       N  0.58459701  0.82379682  0.42846722    -0.37260
N2814       N  0.76499827  0.84779535  0.40687704    -0.37260
C2815       C  0.85677939  0.65242126  0.39048653    -0.03930
C2816       C  0.82403262  0.65112047  0.39093039    -0.01050
C2817       C  0.80750460  0.66779015  0.41295779     0.03940
C2818       C  0.81980027  0.69475416  0.42690337    -0.03930
C2819       C  0.85102856  0.70053117  0.42286174    -0.01040
C2820       C  0.86971781  0.67852788  0.40729156     0.03940
C2821       C  0.80527584  0.63584860  0.36796845     0.38590
C2822       C  0.86469437  0.72719574  0.43800459     0.38580
C2823       C  0.90232139  0.68230574  0.41148324     0.37000
C2824       C  0.77885047  0.65440165  0.42283489     0.37000
N2825       N  0.92791521  0.68641587  0.41651822    -0.37820
N2826       N  0.75711219  0.64199536  0.43123985    -0.37820
N2827       N  0.87564845  0.74837893  0.45012958    -0.37260
N2828       N  0.78925750  0.62454842  0.35004069    -0.37260
C2829       C  0.84955506  0.64133320  0.10488511    -0.03930
C2830       C  0.81701519  0.63514041  0.10793845    -0.01050
C2831       C  0.79508905  0.65542050  0.09676395     0.03940
C2832       C  0.80348582  0.67683039  0.07535483    -0.03930
C2833       C  0.83424321  0.67924507  0.06640983    -0.01040
C2834       C  0.85712474  0.66172054  0.08073931     0.03940
C2835       C  0.80444781  0.60475342  0.11362308     0.38590
C2836       C  0.84244503  0.70075191  0.04281945     0.38580
C2837       C  0.88797245  0.66538081  0.06969312     0.37000
C2838       C  0.76298737  0.65156477  0.10430190     0.37000
N2839       N  0.91161667  0.66955316  0.05883271    -0.37820
N2840       N  0.73746632  0.64835689  0.11015314    -0.37820
N2841       N  0.84886328  0.71797266  0.02411539    -0.36860
N2842       N  0.79265355  0.58100597  0.11601434    -0.37260
C2843       C  0.85986786  0.84969438  0.10524199    -0.03930
C2844       C  0.84386447  0.82256163  0.11451960    -0.01050
C2845       C  0.82578495  0.80495114  0.09360207     0.03940
C2846       C  0.82182600  0.81427582  0.06299773    -0.03930
C2847       C  0.84029702  0.83832963  0.05288290    -0.01040
C2848       C  0.86216869  0.85198619  0.07251842     0.03940
C2849       C  0.84664162  0.81038878  0.14471334     0.38590
C2850       C  0.83841224  0.84818903  0.02165128     0.38580
C2851       C  0.89056263  0.85888402  0.05724852     0.37000
C2852       C  0.81110275  0.77708283  0.10434220     0.37000
N2853       N  0.91253773  0.86231303  0.04311971    -0.37820
N2854       N  0.79945828  0.75524331  0.11365453    -0.37820
N2855       N  0.83703141  0.85621580  0.49681104    -0.37260
N2856       N  0.84819664  0.79790381  0.16762070    -0.37260
C2857       C  0.67117654  0.67545453  0.45142671    -0.03930
C2858       C  0.63993884  0.67061710  0.45496839    -0.01050
C2859       C  0.62252338  0.65971398  0.42997130     0.03940
C2860       C  0.63697279  0.64554881  0.40341264    -0.03930
C2861       C  0.66968644  0.64826246  0.40290778    -0.01040
C2862       C  0.68428316  0.66864232  0.42310264     0.03940
C2863       C  0.62539978  0.67849511  0.48370069     0.38590
C2864       C  0.69040962  0.62844538  0.38608470     0.38580
C2865       C  0.71035017  0.68617588  0.41256151     0.37000
C2866       C  0.59018033  0.66601637  0.43193907     0.37000
N2867       N  0.73030646  0.70108289  0.40374516    -0.37820
N2868       N  0.56505621  0.67326514  0.43542250    -0.37820
N2869       N  0.70804942  0.61295121  0.37365289    -0.37260
N2870       N  0.61383111  0.68468079  0.00661880    -0.37260
C2871       C  0.56022625  0.82544674  0.32552349    -0.03930
C2872       C  0.57271650  0.85280330  0.31406495    -0.01050
C2873       C  0.60078830  0.86485763  0.32539374     0.03940
C2874       C  0.61462107  0.85308630  0.35225122    -0.03930
C2875       C  0.60514213  0.82246317  0.35867576    -0.01040
C2876       C  0.57647929  0.81085967  0.34870100     0.03940
C2877       C  0.55756761  0.86761232  0.28902697     0.38590
C2878       C  0.62785404  0.79954638  0.36546872     0.38580
C2879       C  0.56470582  0.78237695  0.36091110     0.37000
C2880       C  0.61814471  0.88404809  0.30500621     0.37000
N2881       N  0.55510389  0.75983565  0.37085074    -0.37820
N2882       N  0.63155459  0.89885196  0.28790535    -0.37820
N2883       N  0.64576494  0.78084345  0.37044924    -0.37260
N2884       N  0.54548560  0.87940754  0.26907356    -0.37260
C2885       C  0.57437273  0.81198881  0.17587852    -0.03930
C2886       C  0.56920038  0.81410804  0.14441920    -0.01050
C2887       C  0.58036084  0.83951195  0.12806913     0.03940
C2888       C  0.60061772  0.86181284  0.14199625    -0.03930
C2889       C  0.60157383  0.86176338  0.17456839    -0.01040
C2890       C  0.59042259  0.83623211  0.19080535     0.03940
C2891       C  0.55523371  0.78836741  0.12788801     0.38590
C2892       C  0.60938791  0.88881911  0.19277504     0.38580
C2893       C  0.59723941  0.83446138  0.22296456     0.37000
C2894       C  0.57200815  0.84066952  0.09628421     0.37000
N2895       N  0.60361945  0.83263687  0.24831399    -0.37820
N2896       N  0.56381394  0.84043377  0.07133874    -0.37820
N2897       N  0.61405094  0.90995370  0.20855943    -0.37260
N2898       N  0.54421755  0.76792215  0.11461451    -0.37260
C2899       C  0.93111152  0.70492615  0.32372438    -0.03930
C2900       C  0.89936299  0.70357179  0.32222671    -0.01050
C2901       C  0.88294910  0.67861776  0.33516536     0.03940
C2902       C  0.89797917  0.65407124  0.35132290    -0.03930
C2903       C  0.93076275  0.65735880  0.35355392    -0.01040
C2904       C  0.94648119  0.68200593  0.33968672     0.03940
C2905       C  0.88359739  0.72754792  0.30608319     0.38590
C2906       C  0.94978223  0.63800024  0.37185651     0.38580
C2907       C  0.97957699  0.68427414  0.34140740     0.37000
C2908       C  0.85039005  0.67834075  0.32965374     0.37000
N2909       N  0.00575662  0.68740640  0.34132313    -0.37820
N2910       N  0.82483973  0.67989208  0.32347622    -0.37820
N2911       N  0.96606313  0.62341528  0.38626634    -0.37260
N2912       N  0.87108604  0.74679641  0.29336326    -0.37260
C2913       C  0.57500866  0.67707874  0.30398935    -0.03930
C2914       C  0.59140508  0.69307081  0.32688328    -0.01050
C2915       C  0.60008614  0.67855652  0.35410138     0.03940
C2916       C  0.59699131  0.64564732  0.35727094    -0.03930
C2917       C  0.57995022  0.62999949  0.33337717    -0.01040
C2918       C  0.56952238  0.64548871  0.30743723     0.03940
C2919       C  0.60118570  0.72457772  0.32167913     0.38590
C2920       C  0.57106289  0.59785203  0.33536926     0.38580
C2921       C  0.55415543  0.62827573  0.28323666     0.37000
C2922       C  0.61390348  0.69880836  0.37679865     0.37000
N2923       N  0.54206321  0.61451922  0.26394400    -0.37820
N2924       N  0.62475680  0.71644789  0.39367688    -0.37820
N2925       N  0.56198204  0.57278682  0.33570893    -0.37260
N2926       N  0.60966276  0.74922880  0.31665963    -0.37260
C2927       C  0.93462796  0.82761219  0.19704778    -0.03930
C2928       C  0.94135475  0.82863924  0.16559635    -0.01050
C2929       C  0.91960889  0.83814418  0.14430624     0.03940
C2930       C  0.89409344  0.85600213  0.15357687    -0.03930
C2931       C  0.88663675  0.85369984  0.18585462    -0.01040
C2932       C  0.90704038  0.84030444  0.20693078     0.03940
C2933       C  0.97195648  0.82252255  0.15460749     0.38590
C2934       C  0.85595798  0.85760783  0.19773619     0.38580
C2935       C  0.89853783  0.83779831  0.23871475     0.37000
C2936       C  0.92485810  0.82886827  0.11302609     0.37000
N2937       N  0.89154555  0.83572680  0.26392737    -0.37820
N2938       N  0.93103033  0.81914538  0.08919731    -0.37820
N2939       N  0.83198305  0.85876636  0.20868603    -0.37260
N2940       N  0.49627906  0.81863289  0.14530887    -0.37260
C2941       C  0.89647900  0.64556687  0.14571450    -0.03930
C2942       C  0.89766409  0.67869664  0.14555007    -0.01050
C2943       C  0.92154935  0.69515584  0.16046032     0.03940
C2944       C  0.94447031  0.67961349  0.17655792    -0.03930
C2945       C  0.94198150  0.64762612  0.17969378    -0.01040
C2946       C  0.91797183  0.63094582  0.16566771     0.03940
C2947       C  0.87358125  0.69737944  0.13326451     0.38590
C2948       C  0.96533312  0.63121345  0.19629667     0.38580
C2949       C  0.91770802  0.59815061  0.17129601     0.37000
C2950       C  0.92166976  0.72866620  0.16002633     0.37000
N2951       N  0.91964788  0.57258686  0.17794352    -0.37820
N2952       N  0.92133630  0.75529114  0.15944422    -0.37820
N2953       N  0.98381150  0.61807454  0.20945428    -0.37260
N2954       N  0.85486362  0.71388836  0.12498988    -0.37260
C2955       C  0.70357133  0.93131380  0.32911975    -0.03930
C2956       C  0.70120936  0.89951758  0.32379224    -0.01050
C2957       C  0.67820114  0.88209470  0.33822212     0.03940
C2958       C  0.65617648  0.89634738  0.35831832    -0.03930
C2959       C  0.66081197  0.92871877  0.36509261    -0.01040
C2960       C  0.68427248  0.94548360  0.35060077     0.03940
C2961       C  0.72242423  0.88467877  0.30291728     0.38590
C2962       C  0.64533949  0.94489696  0.38977598     0.38580
C2963       C  0.69024336  0.97748020  0.35926255     0.37000
C2964       C  0.67801898  0.84914684  0.33204435     0.37000
N2965       N  0.69527553  0.50280246  0.36635919    -0.37820
N2966       N  0.67893565  0.82310115  0.32609645    -0.37820
N2967       N  0.63371784  0.95882772  0.40920967    -0.37260
N2968       N  0.73944796  0.87270918  0.28650216    -0.37260
C2969       C  0.80949362  0.57290272  0.18205922    -0.03930
C2970       C  0.81322557  0.60490776  0.18531336    -0.01050
C2971       C  0.83749146  0.62017909  0.17071174     0.03940
C2972       C  0.85674723  0.60442488  0.14871260    -0.03930
C2973       C  0.85486641  0.57138825  0.14856502    -0.01040
C2974       C  0.83174514  0.55610138  0.16528906     0.03940
C2975       C  0.79065271  0.62294311  0.20207329     0.38590
C2976       C  0.87678525  0.55182008  0.13303408     0.38580
C2977       C  0.83082870  0.52263290  0.16457303     0.37000
C2978       C  0.84017756  0.65280368  0.17789318     0.37000
N2979       N  0.83032072  0.49600050  0.16343901    -0.37820
N2980       N  0.84046562  0.67831003  0.18603863    -0.37820
N2981       N  0.89395300  0.53468743  0.12218153    -0.37260
N2982       N  0.77268188  0.63739386  0.21518945    -0.37260
C2983       C  0.82744924  0.55484817  0.31816163    -0.03930
C2984       C  0.82623276  0.55678834  0.34976698    -0.01050
C2985       C  0.84129734  0.58106482  0.36581956     0.03940
C2986       C  0.85830890  0.60510483  0.35041361    -0.03930
C2987       C  0.85970107  0.60167900  0.31778039    -0.01040
C2988       C  0.84476731  0.57677669  0.30243579     0.03940
C2989       C  0.80766521  0.53450229  0.36578428     0.38590
C2990       C  0.87760901  0.62160749  0.29858127     0.38580
C2991       C  0.84741178  0.57327018  0.26961804     0.37000
C2992       C  0.83640373  0.58187834  0.39844246     0.37000
N2993       N  0.84983446  0.57038061  0.24357771    -0.37820
N2994       N  0.83085906  0.58139499  0.42411421    -0.37820
N2995       N  0.89174504  0.63622672  0.28188901    -0.37260
N2996       N  0.79278850  0.51682044  0.37848412    -0.37260
C2997       C  0.63699529  0.60629130  0.35522250    -0.03930
C2998       C  0.63456280  0.57337391  0.34999384    -0.01050
C2999       C  0.64912495  0.55865332  0.32489038     0.03940
C3000       C  0.66794380  0.57521437  0.30480721    -0.03930
C3001       C  0.66945338  0.60730185  0.30813421    -0.01040
C3002       C  0.65438030  0.62272146  0.33242954     0.03940
C3003       C  0.61581818  0.55307878  0.36812827     0.38590
C3004       C  0.68615810  0.62490911  0.28571147     0.38580
C3005       C  0.65971409  0.65578627  0.33432476     0.37000
C3006       C  0.64370338  0.52586049  0.31943342     0.37000
N3007       N  0.66592993  0.68174179  0.33476739    -0.37820
N3008       N  0.63878202  0.49995191  0.31497561    -0.37820
N3009       N  0.69937903  0.63894940  0.26788245    -0.37260
N3010       N  0.60114702  0.53540634  0.38112582    -0.37260
C3011       C  0.81306492  0.92555538  0.19344178    -0.03930
C3012       C  0.80025861  0.90679393  0.17013566    -0.01050
C3013       C  0.81873710  0.89140434  0.14815302     0.03940
C3014       C  0.85122810  0.89536627  0.14821807    -0.03930
C3015       C  0.86278798  0.91852010  0.16936280    -0.01040
C3016       C  0.84450804  0.93096467  0.19301340     0.03940
C3017       C  0.76750764  0.90327931  0.16825685     0.38590
C3018       C  0.89281225  0.93212316  0.16687567     0.38580
C3019       C  0.85801478  0.95124960  0.21608836     0.37000
C3020       C  0.80263943  0.87464567  0.12430954     0.37000
N3021       N  0.86878393  0.96734546  0.23441475    -0.37820
N3022       N  0.78790146  0.86278687  0.10566442    -0.37820
N3023       N  0.91532887  0.94611061  0.16648891    -0.37260
N3024       N  0.74158546  0.89999780  0.16515056    -0.37260
C3025       C  0.64428731  0.90556000  0.13856573    -0.03930
C3026       C  0.66520253  0.89646323  0.16155278    -0.01050
C3027       C  0.67651985  0.91822396  0.18296898     0.03940
C3028       C  0.67207382  0.94985286  0.17887530    -0.03930
C3029       C  0.65614462  0.95989836  0.15379231    -0.01040
C3030       C  0.64431875  0.93837312  0.13261575     0.03940
C3031       C  0.67703780  0.86558787  0.16345633     0.38590
C3032       C  0.65270743  0.99285930  0.14932422     0.38580
C3033       C  0.63967013  0.95124304  0.10287911     0.37000
C3034       C  0.69239837  0.90787603  0.20984262     0.37000
N3035       N  0.63819335  0.96381520  0.08002232    -0.37820
N3036       N  0.70493669  0.89969759  0.23126727    -0.37820
N3037       N  0.64999964  0.51903208  0.14575055    -0.37260
N3038       N  0.68946499  0.84239646  0.16631454    -0.37260
Zn3039     Zn  0.70431672  0.99613877  0.75880972     1.49720
Zn3040     Zn  0.74952333  0.99826603  0.70689841     1.49360
Zn3041     Zn  0.75226991  0.54767193  0.75839367     1.49110
Zn3042     Zn  0.77433627  0.97796473  0.77307447     1.49480
O3043       O  0.74612615  0.50444839  0.75026938    -1.82720
O3044       O  0.68426572  0.97260189  0.72609886    -0.73350
O3045       O  0.77417289  0.53121781  0.68778077    -0.73170
O3046       O  0.71554920  0.56846474  0.77813599    -0.72690
O3047       O  0.71060473  0.98742509  0.68592303    -0.73360
O3048       O  0.68028200  0.53230306  0.77244491    -0.72960
O3049       O  0.77465668  0.56738974  0.72380220    -0.73550
O3050       O  0.80488351  0.00722519  0.79728672    -0.72940
O3051       O  0.77450238  0.96219478  0.69821811    -0.73690
O3052       O  0.78375113  0.55275844  0.78878423    -0.73080
O3053       O  0.79714576  0.94966317  0.74132863    -0.73550
O3054       O  0.74827033  0.95091451  0.80253756    -0.73460
O3055       O  0.70188456  0.96826984  0.79218104    -0.73250
C3056       C  0.68920081  0.97193681  0.69784865     0.78540
C3057       C  0.78423085  0.55667113  0.69840167     0.79030
C3058       C  0.68867622  0.55832938  0.78308541     0.77990
C3059       C  0.80408618  0.53666872  0.80093514     0.78370
C3060       C  0.79335733  0.94611005  0.71255067     0.79500
C3061       C  0.71935854  0.95116067  0.80699377     0.78550
Zn3062     Zn  0.99924659  0.75676036  0.70597480     1.49720
Zn3063     Zn  0.99696997  0.70968276  0.75444615     1.49360
Zn3064     Zn  0.54961002  0.75744121  0.75415524     1.49110
Zn3065     Zn  0.98090502  0.78092380  0.77525355     1.49480
O3066       O  0.00605230  0.75225515  0.74870136    -1.82720
O3067       O  0.97945118  0.72182379  0.68308220    -0.73350
O3068       O  0.53096062  0.68726842  0.77433206    -0.73170
O3069       O  0.56984509  0.77870426  0.71887963    -0.72690
O3070       O  0.97517640  0.68888610  0.72028862    -0.73360
O3071       O  0.53288237  0.77799025  0.68495038    -0.72960
O3072       O  0.57009993  0.71926577  0.76967433    -0.73550
O3073       O  0.01175854  0.80709168  0.80323982    -0.72940
O3074       O  0.96579599  0.70745808  0.78445079    -0.73690
O3075       O  0.55600978  0.78750075  0.78756949    -0.73080
O3076       O  0.95132506  0.75321390  0.80231104    -0.73550
O3077       O  0.95566541  0.80990249  0.74601659    -0.73460
O3078       O  0.96886309  0.78731516  0.70273947    -0.73250
C3079       C  0.96829572  0.69729774  0.69377894     0.78540
C3080       C  0.55837250  0.69481225  0.78032515     0.79030
C3081       C  0.55884057  0.78743911  0.69377160     0.77990
C3082       C  0.54102860  0.80567078  0.80470508     0.78370
C3083       C  0.94959747  0.72361530  0.80211960     0.79500
C3084       C  0.95395354  0.80764354  0.71690458     0.78550
Zn3085     Zn  0.75379991  0.70234385  0.99716593     1.49720
Zn3086     Zn  0.70657030  0.75231336  0.99285837     1.49360
Zn3087     Zn  0.74826462  0.75234292  0.54681904     1.49110
Zn3088     Zn  0.77422810  0.77190579  0.98061509     1.49480
O3089       O  0.74759250  0.74482409  0.00408667    -1.82720
O3090       O  0.71757459  0.68258340  0.97768628    -0.73350
O3091       O  0.68909380  0.78525871  0.52031651    -0.73170
O3092       O  0.76858304  0.71782401  0.56873325    -0.72690
O3093       O  0.68019476  0.71523865  0.98823867    -0.73360
O3094       O  0.77357055  0.68258829  0.53177524    -0.72960
O3095       O  0.70948564  0.76976242  0.56351544    -0.73550
O3096       O  0.80253514  0.79488521  0.01338499    -0.72940
O3097       O  0.70669855  0.76715916  0.95150473    -0.73690
O3098       O  0.77705439  0.78517186  0.55561421    -0.73080
O3099       O  0.74309350  0.80168086  0.95792345    -0.73550
O3100       O  0.80018412  0.74285386  0.95049282    -0.73460
O3101       O  0.78452939  0.69741664  0.96659020    -0.73250
C3102       C  0.69008947  0.69114288  0.97482309     0.78540
C3103       C  0.69177485  0.78733471  0.54898420     0.79030
C3104       C  0.77986956  0.69292815  0.55814448     0.77990
C3105       C  0.79928243  0.79772345  0.54240873     0.78370
C3106       C  0.71667138  0.79396474  0.94733139     0.79500
C3107       C  0.80080626  0.71316636  0.94909315     0.78550
Zn3108     Zn  0.95034496  0.49740929  0.49614654     1.49720
Zn3109     Zn  0.49992796  0.94828654  0.49871544     1.49360
Zn3110     Zn  0.50237228  0.49810063  0.94976545     1.49110
Zn3111     Zn  0.51729825  0.51895158  0.52036660     1.49480
O3112       O  0.49344398  0.49147217  0.49174286    -1.82720
O3113       O  0.92909443  0.96387670  0.51871866    -0.73350
O3114       O  0.51479421  0.92339896  0.96236191    -0.73170
O3115       O  0.96843072  0.52101034  0.92830129    -0.72690
O3116       O  0.96629724  0.93038411  0.52405461    -0.73360
O3117       O  0.93011418  0.51869816  0.96114645    -0.72960
O3118       O  0.52174424  0.96087583  0.92957290    -0.73550
O3119       O  0.54454726  0.54786961  0.49451912    -0.72940
O3120       O  0.53435518  0.94537425  0.52622730    -0.73690
O3121       O  0.53477889  0.52863939  0.94827456    -0.73080
O3122       O  0.54506017  0.49154271  0.54651744    -0.73550
O3123       O  0.48746897  0.54507088  0.54813989    -0.73460
O3124       O  0.94543686  0.52841326  0.52685685    -0.73250
C3125       C  0.94025209  0.94062760  0.53180552     0.78540
C3126       C  0.52649703  0.93335074  0.93792938     0.79030
C3127       C  0.94189039  0.52925921  0.93699322     0.77990
C3128       C  0.54858035  0.54749537  0.96571923     0.78370
C3129       C  0.54934476  0.96242599  0.54446126     0.79500
C3130       C  0.95831735  0.54545046  0.54628236     0.78550
C3131       C  0.87457175  0.87466083  0.62908078    -0.01080
C3132       C  0.87794091  0.62967823  0.87033199    -0.01080
C3133       C  0.63304536  0.87506617  0.87626010    -0.01080
C3134       C  0.61708794  0.62547750  0.87983475    -0.01080
C3135       C  0.87514680  0.62437145  0.62461642    -0.01080
C3136       C  0.62318338  0.88100209  0.62097693    -0.01080
C3137       C  0.57077192  0.94600227  0.56429421    -0.03930
C3138       C  0.59175419  0.92579046  0.55070347    -0.01050
C3139       C  0.60446146  0.90122137  0.56693266     0.03940
C3140       C  0.60127604  0.90001200  0.59937528    -0.03930
C3141       C  0.57900579  0.92090325  0.61260863    -0.01040
C3142       C  0.56441702  0.94353280  0.59517436     0.03940
C3143       C  0.60277647  0.93295124  0.52060679     0.38590
C3144       C  0.56929330  0.91972292  0.64395070     0.38580
C3145       C  0.54240868  0.96447570  0.60905120     0.37000
C3146       C  0.61661292  0.87626399  0.54848565     0.37000
N3147       N  0.52493448  0.98114542  0.62008062    -0.37820
N3148       N  0.62482234  0.85665826  0.53232265    -0.37820
N3149       N  0.55880355  0.92044674  0.66806107    -0.37260
N3150       N  0.61171636  0.94032603  0.99713376    -0.37260
C3151       C  0.89738269  0.60610533  0.60112807    -0.03930
C3152       C  0.93027261  0.61015112  0.60007443    -0.01050
C3153       C  0.94958915  0.58812941  0.58595752     0.03940
C3154       C  0.93769833  0.56585879  0.56566943    -0.03930
C3155       C  0.90534547  0.56528013  0.56154579    -0.01040
C3156       C  0.88588864  0.58571780  0.57790509     0.03940
C3157       C  0.94529394  0.63951480  0.60618556     0.38590
C3158       C  0.89082393  0.54315459  0.54080856     0.38580
C3159       C  0.85444421  0.58630633  0.56799672     0.37000
C3160       C  0.98221965  0.58991364  0.59152632     0.37000
N3161       N  0.83052163  0.58572967  0.55697803    -0.37820
N3162       N  0.50811516  0.59154211  0.59626077    -0.37820
N3163       N  0.87893352  0.52591804  0.52425732    -0.37260
N3164       N  0.95868188  0.66238728  0.60947525    -0.37260
C3165       C  0.56648703  0.57128769  0.94985887    -0.03930
C3166       C  0.55046126  0.59070322  0.93066119    -0.01050
C3167       C  0.56537559  0.60682673  0.90734223     0.03940
C3168       C  0.59790103  0.60465260  0.90287644    -0.03930
C3169       C  0.61388997  0.58633965  0.92495456    -0.01040
C3170       C  0.59815174  0.56967516  0.94756266     0.03940
C3171       C  0.51781986  0.59424573  0.93571061     0.38590
C3172       C  0.64663863  0.58200461  0.92368524     0.38580
C3173       C  0.61444212  0.54962919  0.96786702     0.37000
C3174       C  0.54619449  0.62764150  0.89101310     0.37000
N3175       N  0.62740328  0.53366721  0.48406836    -0.37820
N3176       N  0.52992026  0.64440659  0.87922034    -0.37820
N3177       N  0.67246647  0.57681197  0.92390123    -0.37260
N3178       N  0.49202696  0.59673481  0.94052923    -0.37260
C3179       C  0.60650977  0.89412887  0.89314016    -0.03930
C3180       C  0.58395480  0.91120344  0.87683213    -0.01050
C3181       C  0.55581972  0.91968841  0.89035582     0.03940
C3182       C  0.55030797  0.91478946  0.92132596    -0.03930
C3183       C  0.57320335  0.90009485  0.93815265    -0.01040
C3184       C  0.60216240  0.89423447  0.92525477     0.03940
C3185       C  0.59153477  0.92745663  0.84945111     0.38590
C3186       C  0.56717590  0.89036259  0.96887890     0.38580
C3187       C  0.62784247  0.89344935  0.94592363     0.37000
C3188       C  0.53247569  0.93414059  0.87217485     0.37000
N3189       N  0.64811780  0.89299922  0.96268208    -0.37820
N3190       N  0.51392005  0.94563474  0.85767940    -0.37820
N3191       N  0.56193368  0.88172239  0.49301479    -0.37260
N3192       N  0.59629894  0.94255505  0.82859593    -0.37260
C3193       C  0.92586571  0.55450119  0.92060377    -0.03930
C3194       C  0.91440751  0.58019426  0.93696318    -0.01050
C3195       C  0.89849529  0.60410918  0.92232036     0.03940
C3196       C  0.89812444  0.60605481  0.88963794    -0.03930
C3197       C  0.91394792  0.58120091  0.87371227    -0.01040
C3198       C  0.92522256  0.55514139  0.88889645     0.03940
C3199       C  0.92050888  0.58325872  0.96927551     0.38590
C3200       C  0.92086167  0.58233468  0.84153472     0.38580
C3201       C  0.93638530  0.52866777  0.87160000     0.37000
C3202       C  0.88116828  0.62405630  0.94257873     0.37000
N3203       N  0.94508930  0.00748085  0.85787429    -0.37820
N3204       N  0.86753443  0.63835662  0.96037388    -0.37820
N3205       N  0.92814314  0.58189283  0.81627942    -0.37260
N3206       N  0.92575134  0.58685678  0.99479856    -0.37260
C3207       C  0.89313913  0.89900040  0.60923708    -0.03930
C3208       C  0.92569392  0.90186169  0.60844066    -0.01050
C3209       C  0.94069137  0.91403074  0.58275313     0.03940
C3210       C  0.92401246  0.92727776  0.55874927    -0.03930
C3211       C  0.89227260  0.93066679  0.56260810    -0.01040
C3212       C  0.87716574  0.91784239  0.58790714     0.03940
C3213       C  0.94456474  0.89714445  0.63491699     0.38590
C3214       C  0.87421575  0.94487137  0.53909155     0.38580
C3215       C  0.84468273  0.92339574  0.59000702     0.37000
C3216       C  0.97374405  0.91260368  0.58151344     0.37000
N3217       N  0.81908609  0.92968689  0.59012844    -0.37820
N3218       N  0.50001992  0.91074857  0.58073045    -0.37820
N3219       N  0.85959717  0.95587388  0.02040465    -0.37260
N3220       N  0.96052117  0.89504723  0.65566488    -0.37260
C3221       C  0.67481004  0.81119325  0.56612409    -0.03930
C3222       C  0.68403478  0.84229248  0.56539798    -0.01050
C3223       C  0.66960836  0.86481615  0.58431970     0.03940
C3224       C  0.64528037  0.85632946  0.60442143    -0.03930
C3225       C  0.64306137  0.82349978  0.60932143    -0.01040
C3226       C  0.65355189  0.80210095  0.58761088     0.03940
C3227       C  0.70843486  0.85107187  0.54492779     0.38590
C3228       C  0.63961837  0.81027566  0.63910104     0.38580
C3229       C  0.64473864  0.76980700  0.58944240     0.37000
C3230       C  0.68154768  0.89584913  0.58316647     0.37000
N3231       N  0.63773829  0.74415111  0.59096228    -0.37820
N3232       N  0.69347346  0.91957229  0.58132419    -0.37820
N3233       N  0.63894997  0.79769553  0.66201246    -0.37260
N3234       N  0.72786561  0.85794642  0.52857582    -0.37260
C3235       C  0.69543206  0.81590828  0.93184028    -0.03930
C3236       C  0.70653384  0.84063462  0.91526011    -0.01050
C3237       C  0.68627422  0.86279973  0.90417138     0.03940
C3238       C  0.65415578  0.85617018  0.89978073    -0.03930
C3239       C  0.64284105  0.83258575  0.91933866    -0.01040
C3240       C  0.66318017  0.81331886  0.93543176     0.03940
C3241       C  0.73909154  0.84460930  0.91073121     0.38590
C3242       C  0.61031609  0.82799483  0.92422096     0.38580
C3243       C  0.65029643  0.79107301  0.95613863     0.37000
C3244       C  0.69806006  0.89396254  0.90683355     0.37000
N3245       N  0.63957926  0.77351007  0.97249952    -0.37820
N3246       N  0.70901822  0.91804360  0.91063285    -0.37820
N3247       N  0.58459701  0.82379679  0.92846721    -0.37260
N3248       N  0.76499827  0.84779519  0.90687692    -0.37260
C3249       C  0.85677940  0.65242124  0.89048651    -0.03930
C3250       C  0.82403262  0.65112044  0.89093038    -0.01050
C3251       C  0.80750461  0.66779011  0.91295779     0.03940
C3252       C  0.81980027  0.69475412  0.92690337    -0.03930
C3253       C  0.85102856  0.70053114  0.92286172    -0.01040
C3254       C  0.86971782  0.67852786  0.90729154     0.03940
C3255       C  0.80527584  0.63584857  0.86796844     0.38590
C3256       C  0.86469436  0.72719572  0.93800457     0.38580
C3257       C  0.90232139  0.68230572  0.91148321     0.37000
C3258       C  0.77885049  0.65440159  0.92283490     0.37000
N3259       N  0.92791521  0.68641586  0.91651819    -0.37820
N3260       N  0.75711222  0.64199529  0.93123987    -0.37820
N3261       N  0.87564844  0.74837892  0.95012955    -0.37260
N3262       N  0.78925750  0.62454840  0.85004068    -0.37260
C3263       C  0.84955506  0.64133321  0.60488508    -0.03930
C3264       C  0.81701519  0.63514042  0.60793842    -0.01050
C3265       C  0.79508905  0.65542051  0.59676393     0.03940
C3266       C  0.80348582  0.67683040  0.57535481    -0.03930
C3267       C  0.83424321  0.67924509  0.56640982    -0.01040
C3268       C  0.85712474  0.66172055  0.58073929     0.03940
C3269       C  0.80444782  0.60475342  0.61362305     0.38590
C3270       C  0.84244503  0.70075193  0.54281944     0.38580
C3271       C  0.88797245  0.66538082  0.56969310     0.37000
C3272       C  0.76298737  0.65156476  0.60430187     0.37000
N3273       N  0.91161667  0.66955317  0.55883269    -0.37820
N3274       N  0.73746631  0.64835687  0.61015310    -0.37820
N3275       N  0.84886328  0.71797270  0.52411539    -0.36860
N3276       N  0.79265356  0.58100597  0.61601431    -0.37260
C3277       C  0.85986786  0.84969440  0.60524201    -0.03930
C3278       C  0.84386447  0.82256164  0.61451961    -0.01050
C3279       C  0.82578496  0.80495116  0.59360208     0.03940
C3280       C  0.82182600  0.81427585  0.56299774    -0.03930
C3281       C  0.84029701  0.83832967  0.55288292    -0.01040
C3282       C  0.86216869  0.85198622  0.57251844     0.03940
C3283       C  0.84664160  0.81038880  0.64471336     0.38590
C3284       C  0.83841223  0.84818908  0.52165131     0.38580
C3285       C  0.89056262  0.85888405  0.55724855     0.37000
C3286       C  0.81110276  0.77708284  0.60434220     0.37000
N3287       N  0.91253772  0.86231306  0.54311973    -0.37820
N3288       N  0.79945829  0.75524332  0.61365452    -0.37820
N3289       N  0.83703142  0.85621574  0.99681101    -0.37260
N3290       N  0.84819661  0.79790384  0.66762072    -0.37260
C3291       C  0.67117655  0.67545446  0.95142671    -0.03930
C3292       C  0.63993885  0.67061704  0.95496838    -0.01050
C3293       C  0.62252339  0.65971393  0.92997129     0.03940
C3294       C  0.63697280  0.64554875  0.90341263    -0.03930
C3295       C  0.66968646  0.64826239  0.90290778    -0.01040
C3296       C  0.68428317  0.66864225  0.92310265     0.03940
C3297       C  0.62539978  0.67849504  0.98370068     0.38590
C3298       C  0.69040963  0.62844531  0.88608470     0.38580
C3299       C  0.71035019  0.68617581  0.91256152     0.37000
C3300       C  0.59018034  0.66601633  0.93193905     0.37000
N3301       N  0.73030648  0.70108281  0.90374517    -0.37820
N3302       N  0.56505622  0.67326511  0.93542248    -0.37820
N3303       N  0.70804943  0.61295114  0.87365289    -0.37260
N3304       N  0.61383111  0.68468085  0.50661881    -0.37260
C3305       C  0.56022625  0.82544671  0.82552350    -0.03930
C3306       C  0.57271649  0.85280329  0.81406497    -0.01050
C3307       C  0.60078829  0.86485762  0.82539376     0.03940
C3308       C  0.61462108  0.85308628  0.85225122    -0.03930
C3309       C  0.60514215  0.82246314  0.85867575    -0.01040
C3310       C  0.57647931  0.81085964  0.84870099     0.03940
C3311       C  0.55756758  0.86761232  0.78902701     0.38590
C3312       C  0.62785406  0.79954635  0.86546870     0.38580
C3313       C  0.56470585  0.78237691  0.86091108     0.37000
C3314       C  0.61814470  0.88404808  0.80500622     0.37000
N3315       N  0.55510393  0.75983560  0.87085071    -0.37820
N3316       N  0.63155458  0.89885195  0.78790536    -0.37820
N3317       N  0.64576497  0.78084343  0.87044922    -0.37260
N3318       N  0.54548556  0.87940754  0.76907361    -0.37260
C3319       C  0.57437273  0.81198881  0.67587854    -0.03930
C3320       C  0.56920039  0.81410805  0.64441921    -0.01050
C3321       C  0.58036084  0.83951196  0.62806915     0.03940
C3322       C  0.60061772  0.86181285  0.64199627    -0.03930
C3323       C  0.60157383  0.86176339  0.67456842    -0.01040
C3324       C  0.59042258  0.83623212  0.69080537     0.03940
C3325       C  0.55523372  0.78836741  0.62788802     0.38590
C3326       C  0.60938790  0.88881911  0.69277507     0.38580
C3327       C  0.59723939  0.83446139  0.72296458     0.37000
C3328       C  0.57200816  0.84066953  0.59628423     0.37000
N3329       N  0.60361943  0.83263687  0.74831401    -0.37820
N3330       N  0.56381395  0.84043378  0.57133876    -0.37820
N3331       N  0.61405093  0.90995371  0.70855946    -0.37260
N3332       N  0.54421758  0.76792215  0.61461452    -0.37260
C3333       C  0.93111153  0.70492612  0.82372438    -0.03930
C3334       C  0.89936300  0.70357176  0.82222670    -0.01050
C3335       C  0.88294911  0.67861773  0.83516534     0.03940
C3336       C  0.89797918  0.65407122  0.85132288    -0.03930
C3337       C  0.93076276  0.65735877  0.85355391    -0.01040
C3338       C  0.94648119  0.68200591  0.83968672     0.03940
C3339       C  0.88359739  0.72754789  0.80608317     0.38590
C3340       C  0.94978223  0.63800021  0.87185649     0.38580
C3341       C  0.97957699  0.68427412  0.84140740     0.37000
C3342       C  0.85039005  0.67834072  0.82965372     0.37000
N3343       N  0.00575663  0.68740639  0.84132314    -0.37820
N3344       N  0.82483974  0.67989204  0.82347620    -0.37820
N3345       N  0.96606313  0.62341524  0.88626632    -0.37260
N3346       N  0.87108604  0.74679638  0.79336324    -0.37260
C3347       C  0.57500866  0.67707871  0.80398935    -0.03930
C3348       C  0.59140510  0.69307077  0.82688327    -0.01050
C3349       C  0.60008616  0.67855648  0.85410137     0.03940
C3350       C  0.59699132  0.64564729  0.85727093    -0.03930
C3351       C  0.57995022  0.62999946  0.83337716    -0.01040
C3352       C  0.56952238  0.64548868  0.80743722     0.03940
C3353       C  0.60118573  0.72457769  0.82167912     0.38590
C3354       C  0.57106288  0.59785200  0.83536924     0.38580
C3355       C  0.55415542  0.62827571  0.78323666     0.37000
C3356       C  0.61390350  0.69880832  0.87679864     0.37000
N3357       N  0.54206320  0.61451921  0.76394399    -0.37820
N3358       N  0.62475683  0.71644784  0.89367687    -0.37820
N3359       N  0.56198203  0.57278680  0.83570891    -0.37260
N3360       N  0.60966280  0.74922876  0.81665962    -0.37260
C3361       C  0.93462796  0.82761217  0.69704778    -0.03930
C3362       C  0.94135474  0.82863922  0.66559636    -0.01050
C3363       C  0.91960888  0.83814418  0.64430625     0.03940
C3364       C  0.89409344  0.85600213  0.65357689    -0.03930
C3365       C  0.88663676  0.85369985  0.68585464    -0.01040
C3366       C  0.90704039  0.84030443  0.70693080     0.03940
C3367       C  0.97195646  0.82252251  0.65460749     0.38590
C3368       C  0.85595799  0.85760784  0.69773622     0.38580
C3369       C  0.89853785  0.83779831  0.73871477     0.37000
C3370       C  0.92485808  0.82886827  0.61302610     0.37000
N3371       N  0.89154558  0.83572681  0.76392739    -0.37820
N3372       N  0.93103030  0.81914537  0.58919732    -0.37820
N3373       N  0.83198306  0.85876639  0.70868607    -0.37260
N3374       N  0.49627904  0.81863284  0.64530886    -0.37260
C3375       C  0.89647900  0.64556687  0.64571449    -0.03930
C3376       C  0.89766409  0.67869664  0.64555006    -0.01050
C3377       C  0.92154935  0.69515584  0.66046031     0.03940
C3378       C  0.94447032  0.67961349  0.67655791    -0.03930
C3379       C  0.94198150  0.64762612  0.67969377    -0.01040
C3380       C  0.91797183  0.63094582  0.66566769     0.03940
C3381       C  0.87358126  0.69737945  0.63326450     0.38590
C3382       C  0.96533312  0.63121345  0.69629665     0.38580
C3383       C  0.91770801  0.59815062  0.67129600     0.37000
C3384       C  0.92166976  0.72866620  0.66002632     0.37000
N3385       N  0.91964787  0.57258686  0.67794351    -0.37820
N3386       N  0.92133630  0.75529114  0.65944422    -0.37820
N3387       N  0.98381150  0.61807453  0.70945426    -0.37260
N3388       N  0.85486363  0.71388837  0.62498986    -0.37260
C3389       C  0.70357138  0.93131375  0.82911978    -0.03930
C3390       C  0.70120938  0.89951754  0.82379223    -0.01050
C3391       C  0.67820115  0.88209466  0.83822211     0.03940
C3392       C  0.65617651  0.89634735  0.85831833    -0.03930
C3393       C  0.66081202  0.92871873  0.86509265    -0.01040
C3394       C  0.68427255  0.94548355  0.85060083     0.03940
C3395       C  0.72242423  0.88467873  0.80291726     0.38590
C3396       C  0.64533956  0.94489691  0.88977604     0.38580
C3397       C  0.69024347  0.97748013  0.85926264     0.37000
C3398       C  0.67801896  0.84914681  0.83204430     0.37000
N3399       N  0.69527540  0.50280252  0.86635910    -0.37820
N3400       N  0.67893562  0.82310113  0.82609638    -0.37820
N3401       N  0.63371793  0.95882767  0.90920973    -0.37260
N3402       N  0.73944795  0.87270915  0.78650213    -0.37260
C3403       C  0.80949362  0.57290272  0.68205920    -0.03930
C3404       C  0.81322556  0.60490776  0.68531333    -0.01050
C3405       C  0.83749146  0.62017910  0.67071171     0.03940
C3406       C  0.85674723  0.60442489  0.64871258    -0.03930
C3407       C  0.85486641  0.57138826  0.64856500    -0.01040
C3408       C  0.83174514  0.55610139  0.66528905     0.03940
C3409       C  0.79065270  0.62294312  0.70207327     0.38590
C3410       C  0.87678526  0.55182008  0.63303406     0.38580
C3411       C  0.83082870  0.52263291  0.66457302     0.37000
C3412       C  0.84017754  0.65280369  0.67789315     0.37000
N3413       N  0.83032073  0.49600051  0.66343901    -0.37820
N3414       N  0.84046560  0.67831005  0.68603859    -0.37820
N3415       N  0.89395300  0.53468744  0.62218153    -0.37260
N3416       N  0.77268186  0.63739386  0.71518942    -0.37260
C3417       C  0.82744924  0.55484815  0.81816161    -0.03930
C3418       C  0.82623276  0.55678831  0.84976697    -0.01050
C3419       C  0.84129735  0.58106480  0.86581954     0.03940
C3420       C  0.85830890  0.60510480  0.85041359    -0.03930
C3421       C  0.85970108  0.60167898  0.81778038    -0.01040
C3422       C  0.84476732  0.57677666  0.80243577     0.03940
C3423       C  0.80766520  0.53450227  0.86578427     0.38590
C3424       C  0.87760902  0.62160746  0.79858126     0.38580
C3425       C  0.84741178  0.57327016  0.76961803     0.37000
C3426       C  0.83640373  0.58187832  0.89844245     0.37000
N3427       N  0.84983446  0.57038059  0.74357769    -0.37820
N3428       N  0.83085907  0.58139496  0.92411419    -0.37820
N3429       N  0.89174506  0.63622669  0.78188900    -0.37260
N3430       N  0.79278849  0.51682042  0.87848410    -0.37260
C3431       C  0.63699529  0.60629126  0.85522248    -0.03930
C3432       C  0.63456279  0.57337388  0.84999379    -0.01050
C3433       C  0.64912491  0.55865331  0.82489030     0.03940
C3434       C  0.66794379  0.57521436  0.80480716    -0.03930
C3435       C  0.66945339  0.60730184  0.80813419    -0.01040
C3436       C  0.65438032  0.62272144  0.83242953     0.03940
C3437       C  0.61581818  0.55307874  0.86812822     0.38590
C3438       C  0.68615814  0.62490911  0.78571148     0.38580
C3439       C  0.65971412  0.65578625  0.83432478     0.37000
C3440       C  0.64370331  0.52586049  0.81943330     0.37000
N3441       N  0.66592997  0.68174176  0.83476742    -0.37820
N3442       N  0.63878192  0.49995192  0.81497545    -0.37820
N3443       N  0.69937909  0.63894940  0.76788248    -0.37260
N3444       N  0.60114703  0.53540630  0.88112577    -0.37260
C3445       C  0.81306492  0.92555539  0.69344180    -0.03930
C3446       C  0.80025861  0.90679395  0.67013568    -0.01050
C3447       C  0.81873710  0.89140435  0.64815305     0.03940
C3448       C  0.85122810  0.89536628  0.64821810    -0.03930
C3449       C  0.86278798  0.91852011  0.66936283    -0.01040
C3450       C  0.84450804  0.93096468  0.69301342     0.03940
C3451       C  0.76750764  0.90327932  0.66825687     0.38590
C3452       C  0.89281226  0.93212315  0.66687572     0.38580
C3453       C  0.85801478  0.95124962  0.71608838     0.37000
C3454       C  0.80263943  0.87464569  0.62430957     0.37000
N3455       N  0.86878392  0.96734548  0.73441477    -0.37820
N3456       N  0.78790146  0.86278689  0.60566444    -0.37820
N3457       N  0.91532889  0.94611058  0.66648897    -0.37260
N3458       N  0.74158546  0.89999782  0.66515058    -0.37260
C3459       C  0.64428730  0.90556002  0.63856577    -0.03930
C3460       C  0.66520253  0.89646325  0.66155282    -0.01050
C3461       C  0.67651984  0.91822397  0.68296902     0.03940
C3462       C  0.67207380  0.94985288  0.67887535    -0.03930
C3463       C  0.65614459  0.95989838  0.65379237    -0.01040
C3464       C  0.64431873  0.93837314  0.63261580     0.03940
C3465       C  0.67703780  0.86558789  0.66345636     0.38590
C3466       C  0.65270739  0.99285932  0.64932429     0.38580
C3467       C  0.63967011  0.95124307  0.60287916     0.37000
C3468       C  0.69239837  0.90787604  0.70984265     0.37000
N3469       N  0.63819333  0.96381523  0.58002238    -0.37820
N3470       N  0.70493671  0.89969760  0.73126729    -0.37820
N3471       N  0.64999968  0.51903205  0.64575050    -0.37260
N3472       N  0.68946499  0.84239649  0.66631456    -0.37260
loop_ 
_geom_bond_atom_site_label_1 
_geom_bond_atom_site_label_2 
_geom_bond_distance 
_geom_bond_site_symmetry_2 
_ccdc_geom_bond_type 
Zn1           O6   1.958       .  S
Zn1          O17   1.926       .  S
Zn1         O878   1.979       .  S
Zn1         O873   1.907       .  S
Zn2           O9   1.993       .  S
Zn2          O13   1.948       .  S
Zn2         O875   1.989       .  S
Zn2         O873   1.931       .  S
Zn3           O8   2.037       .  S
Zn3          O11   2.015       .  S
Zn3          O14   1.935       .  S
Zn3           O5   1.922       .  S
Zn4          O12   2.117       .  S
Zn4          O15   2.100       .  S
Zn4          O16   2.101       .  S
Zn4         O873   1.983       .  S
O5         Zn869   1.907   1_545  S
O5         Zn870   1.931   1_545  S
O5         Zn872   1.983   1_545  S
O6           C18   1.263       .  A
O7         Zn870   1.989   1_545  S
O7           C19   1.269       .  A
O8           C20   1.277       .  A
O9           C18   1.271       .  A
O10        Zn869   1.979   1_545  S
O10          C20   1.268       .  A
O11          C19   1.275       .  A
O12         C889   1.286       .  A
O13          C22   1.264       .  A
O14          C21   1.263       .  A
O15          C22   1.286       .  A
O16          C23   1.284       .  A
O17          C23   1.262       .  A
C18         C424   1.465       .  S
C19         C365   1.501       .  S
C20         C396   1.503       .  S
C21         O880   1.286       .  A
C21         C379   1.490       .  S
C22         C407   1.494       .  S
C23         C351   1.483       .  S
Zn24         O29   2.001       .  S
Zn24         O40   1.894       .  S
Zn24       O1769   1.975       .  S
Zn24         O28   1.921       .  S
Zn25         O32   1.985       .  S
Zn25         O36   1.905       .  S
Zn25       O1766   1.999       .  S
Zn25         O28   1.911       .  S
Zn26         O31   2.025       .  S
Zn26         O34   2.022       .  S
Zn26         O37   1.968       .  S
Zn26       O1764   1.939       .  S
Zn27         O35   2.140       .  S
Zn27         O38   2.143       .  S
Zn27         O39   2.135       .  S
Zn27         O28   2.023       .  S
O28       Zn1762   1.939       .  S
O29          C41   1.269       .  A
O30       Zn1761   1.999   1_455  S
O30          C42   1.272       .  A
O31          C43   1.274       .  A
O32          C41   1.269       .  A
O33       Zn1760   1.975   1_455  S
O33          C43   1.268       .  A
O34          C42   1.275       .  A
O35        C1780   1.288       .  A
O36          C45   1.259       .  A
O37          C44   1.267       .  A
O38          C45   1.287       .  A
O39          C46   1.287       .  A
O40          C46   1.257       .  A
C41         C340   1.493       .  S
C42         C309   1.502       .  S
C43         C281   1.499       .  S
C44        O1771   1.288       .  A
C44         C267   1.501       .  S
C45         C295   1.498       .  S
C46         C323   1.509       .  S
Zn47         O52   1.990       .  S
Zn47         O63   1.915       .  S
Zn47        O490   1.970       .  S
Zn47         O51   1.885       .  S
Zn48         O55   1.985       .  S
Zn48         O59   1.945       .  S
Zn48        O487   2.010       .  S
Zn48         O51   1.900       .  S
Zn49         O54   2.013       .  S
Zn49         O57   2.000       .  S
Zn49         O60   1.934       .  S
Zn49        O485   1.905       .  S
Zn50         O58   2.136       .  S
Zn50         O61   2.148       .  S
Zn50         O62   2.144       .  S
Zn50         O51   1.962       .  S
O51        Zn483   1.905       .  S
O52          C64   1.271       .  A
O53        Zn482   2.010   1_554  S
O53          C65   1.271       .  A
O54          C66   1.272       .  A
O55          C64   1.270       .  A
O56        Zn481   1.970   1_554  S
O56          C66   1.268       .  A
O57          C65   1.275       .  A
O58         C501   1.291       .  A
O59          C68   1.258       .  A
O60          C67   1.262       .  A
O61          C68   1.291       .  A
O62          C69   1.290       .  A
O63          C69   1.260       .  A
C64         C253   1.478       .  S
C65         C183   1.475       .  S
C66         C228   1.473       .  S
C67         O492   1.291       .  A
C67         C242   1.513       .  S
C68         C197   1.510       .  S
C69         C214   1.505       .  S
Zn70         O86   1.903   1_566  S
Zn70        O943   2.005   1_556  S
Zn70        O513   2.023   1_565  S
Zn70       O1810   1.920       .  S
Zn71         O82   1.945   1_656  S
Zn71        O510   2.024   1_655  S
Zn71       O1814   2.012   1_556  S
Zn71        O942   1.929       .  S
Zn72         O83   1.941   1_565  S
Zn72       O1813   2.040   1_465  S
Zn72        O948   2.021       .  S
Zn72        O508   1.918   1_455  S
Zn73         O81   2.084   1_554  S
Zn73         O84   2.075   1_545  S
Zn73         O85   2.111   1_455  S
Zn73         O74   2.011   1_444  S
O74       Zn1806   1.920       .  S
O74        Zn939   1.929       .  S
O74        Zn506   1.918   1_655  S
O75        Zn938   2.005   1_554  S
O75          C87   1.273       .  A
O76        Zn505   2.024   1_455  S
O76          C88   1.275       .  A
O77       Zn1808   2.040   1_545  S
O77          C89   1.277       .  A
O78       Zn1807   2.012   1_554  S
O78          C87   1.273       .  A
O79        Zn504   2.023   1_545  S
O79          C89   1.275       .  A
O80        Zn940   2.021       .  S
O80          C88   1.276       .  A
O81         C524   1.281       .  A
O82          C91   1.265       .  A
O83          C90   1.265       .  A
O84         C959   1.281       .  A
O85        C1828   1.282       .  A
O86          C92   1.254       .  A
C87         C172   1.508       .  S
C88         C144   1.504       .  S
C89         C155   1.503       .  S
C90         O515   1.281       .  A
C90         C127   1.480       .  S
C91         O952   1.281       .  A
C91          C99   1.481       .  S
C92        O1821   1.282       .  A
C92         C116   1.520       .  S
C93         C169   1.603       .  S
C93         C239   1.626       .  S
C93         C326   1.613       .  S
C93         C410   1.596       .  S
C94         C158   1.615       .  S
C94         C211   1.612       .  S
C94         C298   1.619       .  S
C94         C382   1.615       .  S
C95         C141   1.606       .  S
C95         C200   1.629       .  S
C95         C270   1.625       .  S
C95         C354   1.589       .  S
C96         C130   1.607       .  S
C96         C256   1.600       .  S
C96         C312   1.606       .  S
C96         C393   1.614       .  S
C97         C113   1.621       .  S
C97         C225   1.612       .  S
C97         C337   1.596       .  S
C97         C368   1.599       .  S
C98         C102   1.599       .  S
C98         C186   1.612       .  S
C98         C284   1.598       .  S
C98         C421   1.598       .  S
C99         C100   1.401       .  A
C99         C104   1.395       .  A
C100        C101   1.414       .  A
C100        C105   1.450       .  S
C101        C102   1.439       .  A
C101        C108   1.446       .  S
C102        C103   1.451       .  A
C103        C104   1.416       .  A
C103        C106   1.447       .  S
C104        C107   1.456       .  S
C105        N546   1.156   1_554  T
C106        N111   1.157       .  T
C107        N109   1.157       .  T
C108        N110   1.158       .  T
N112        C539   1.156       .  T
C113        C114   1.454       .  A
C113        C118   1.431       .  A
C114        C115   1.416       .  A
C114        C119   1.453       .  S
C115        C116   1.403       .  A
C115        C122   1.455       .  S
C116        C117   1.432       .  A
C117        C118   1.420       .  A
C117        C120   1.458       .  S
C118        C121   1.449       .  S
C119        N126   1.158       .  T
C120        N125   1.158       .  T
C121        N123   1.158       .  T
C122       N1860   1.157       .  T
N124       C1858   1.157   1_455  T
C127        C128   1.400       .  A
C127        C132   1.395       .  A
C128        C129   1.413       .  A
C128        C133   1.458       .  S
C129        C130   1.444       .  A
C129        C136   1.442       .  S
C130        C131   1.453       .  A
C131        C132   1.419       .  A
C131        C134   1.451       .  S
C132        C135   1.453       .  S
C133        N140   1.157   1_455  T
C134        N139   1.157       .  T
C135        N571   1.157       .  T
C136        N138   1.154       .  T
N137        C569   1.157       .  T
C141        C142   1.442       .  A
C141        C146   1.428       .  A
C142        C143   1.418       .  A
C142        C147   1.448       .  S
C143        C144   1.406       .  A
C143        C150   1.455       .  S
C144        C145   1.413       .  A
C145        C146   1.414       .  A
C145        C148   1.450       .  S
C146        C149   1.451       .  S
C147        N154   1.158       .  T
C148        N587   1.157       .  T
C149        N151   1.158       .  T
C150        N152   1.157       .  T
N153        C582   1.157       .  T
C155        C156   1.411       .  A
C155        C160   1.399       .  A
C156        C157   1.421       .  A
C156        C161   1.453       .  S
C157        C158   1.445       .  A
C157        C164   1.449       .  S
C158        C159   1.455       .  A
C159        C160   1.418       .  A
C159        C162   1.452       .  S
C160        C163   1.454       .  S
C161        N168   1.156       .  T
C162        N167   1.157       .  T
C163       N1033   1.157       .  T
C164        N166   1.158       .  T
N165       C1031   1.157       .  T
C169        C170   1.434       .  A
C169        C174   1.444       .  A
C170        C171   1.418       .  A
C170        C175   1.451       .  S
C171        C172   1.420       .  A
C171        C178   1.453       .  S
C172        C173   1.411       .  A
C173        C174   1.418       .  A
C173        C176   1.455       .  S
C174        C177   1.450       .  S
C175        N182   1.158       .  T
C176        N615   1.157       .  T
C177        N179   1.158       .  T
C178       N1916   1.157       .  T
N180       C1914   1.157   1_455  T
N181        C610   1.157       .  T
C183        C184   1.409       .  A
C183        C188   1.390       .  A
C184        C185   1.423       .  A
C184        C189   1.453       .  S
C185        C186   1.438       .  A
C185        C192   1.445       .  S
C186        C187   1.449       .  A
C187        C188   1.400       .  A
C187        C190   1.451       .  S
C188        C191   1.456       .  S
C189        N196   1.157       .  T
C190        N195   1.158       .  T
C191        N193   1.157       .  T
C192        N194   1.157       .  T
C197        C198   1.396       .  A
C197        C202   1.428       .  A
C198        C199   1.409       .  A
C198        C203   1.452       .  S
C199        C200   1.450       .  A
C199        C206   1.449       .  S
C200        C201   1.438       .  A
C201        C202   1.426       .  A
C201        C204   1.456       .  S
C202        C205   1.454       .  S
C203        N210   1.157       .  T
C204        N209   1.158       .  T
C205        N207   1.157       .  T
C206        N208   1.158       .  T
C211        C212   1.438       .  A
C211        C216   1.455       .  A
C212        C213   1.403       .  A
C212        C217   1.453       .  S
C213        C214   1.416       .  A
C213        C220   1.452       .  S
C214        C215   1.404       .  A
C215        C216   1.427       .  A
C215        C218   1.452       .  S
C216        C219   1.451       .  S
C217        N224   1.159       .  T
C218        N223   1.157       .  T
C219        N221   1.158       .  T
C220        N222   1.157       .  T
C225        C226   1.458       .  A
C225        C230   1.435       .  A
C226        C227   1.404       .  A
C226        C231   1.454       .  S
C227        C228   1.386       .  A
C227        C234   1.457       .  S
C228        C229   1.410       .  A
C229        C230   1.420       .  A
C229        C232   1.455       .  S
C230        C233   1.447       .  S
C231        N238   1.158       .  T
C232        N237   1.157       .  T
C233        N235   1.157       .  T
C234        N236   1.157       .  T
C239        C240   1.435       .  A
C239        C244   1.451       .  A
C240        C241   1.426       .  A
C240        C245   1.447       .  S
C241        C242   1.427       .  A
C241        C248   1.455       .  S
C242        C243   1.398       .  A
C243        C244   1.414       .  A
C243        C246   1.452       .  S
C244        C247   1.448       .  S
C245        N252   1.158       .  T
C246        N685   1.157   1_554  T
C247        N249   1.158       .  T
C248        N250   1.157       .  T
N251        C680   1.157       .  T
C253        C254   1.395       .  A
C253        C258   1.401       .  A
C254        C255   1.414       .  A
C254        C259   1.453       .  S
C255        C256   1.457       .  A
C255        C262   1.449       .  S
C256        C257   1.440       .  A
C257        C258   1.397       .  A
C257        C260   1.449       .  S
C258        C261   1.452       .  S
C259        N700   1.157       .  T
C260        N265   1.158       .  T
C261        N263   1.158       .  T
C262        N264   1.158       .  T
N266        C693   1.157   1_554  T
C267        C268   1.408       .  A
C267        C272   1.410       .  A
C268        C269   1.423       .  A
C268        C273   1.452       .  S
C269        C270   1.436       .  A
C269        C276   1.450       .  S
C270        C271   1.425       .  A
C271        C272   1.420       .  A
C271        C274   1.448       .  S
C272        C275   1.451       .  S
C273        N280   1.157       .  T
C274        N279   1.158       .  T
C275        N277   1.157       .  T
C276        N278   1.158       .  T
C281        C282   1.410       .  A
C281        C286   1.415       .  A
C282        C283   1.415       .  A
C282        C287   1.455       .  S
C283        C284   1.440       .  A
C283        C290   1.451       .  S
C284        C285   1.436       .  A
C285        C286   1.416       .  A
C285        C288   1.450       .  S
C286        C289   1.453       .  S
C287        N294   1.158       .  T
C288        N293   1.158       .  T
C289        N291   1.157       .  T
C290        N292   1.157       .  T
C295        C296   1.396       .  A
C295        C300   1.406       .  A
C296        C297   1.426       .  A
C296        C301   1.452       .  S
C297        C298   1.455       .  A
C297        C304   1.450       .  S
C298        C299   1.448       .  A
C299        C300   1.418       .  A
C299        C302   1.446       .  S
C300        C303   1.457       .  S
C301        N308   1.157       .  T
C302        N307   1.157       .  T
C303        N305   1.156       .  T
C304        N306   1.157       .  T
C309        C310   1.410       .  A
C309        C314   1.403       .  A
C310        C311   1.420       .  A
C310        C315   1.454       .  S
C311        C312   1.444       .  A
C311        C318   1.450       .  S
C312        C313   1.449       .  A
C313        C314   1.416       .  A
C313        C316   1.452       .  S
C314        C317   1.455       .  S
C315        N322   1.157       .  T
C316        N321   1.157       .  T
C317        N319   1.157       .  T
C318        N320   1.158       .  T
C323        C324   1.418       .  A
C323        C328   1.398       .  A
C324        C325   1.409       .  A
C324        C329   1.451       .  S
C325        C326   1.421       .  A
C325        C332   1.447       .  S
C326        C327   1.465       .  A
C327        C328   1.426       .  A
C327        C330   1.454       .  S
C328        C331   1.455       .  S
C329       N2072   1.155       .  T
C330        N335   1.158       .  T
C331        N333   1.158       .  T
C332        N334   1.157       .  T
N336       C2065   1.155       .  T
C337        C338   1.440       .  A
C337        C342   1.449       .  A
C338        C339   1.420       .  A
C338        C343   1.448       .  S
C339        C340   1.414       .  A
C339        C346   1.456       .  S
C340        C341   1.402       .  A
C341        C342   1.412       .  A
C341        C344   1.458       .  S
C342        C345   1.450       .  S
C343        N350   1.158       .  T
C344        N349   1.157       .  T
C345        N347   1.157       .  T
C346        N348   1.157       .  T
C351        C352   1.399       .  A
C351        C356   1.404       .  A
C352        C353   1.416       .  A
C352        C357   1.452       .  S
C353        C354   1.444       .  A
C353        C360   1.451       .  S
C354        C355   1.445       .  A
C355        C356   1.416       .  A
C355        C358   1.453       .  S
C356        C359   1.456       .  S
C357        N364   1.157       .  T
C358        N363   1.158       .  T
C359       N1229   1.157       .  T
C360        N362   1.157       .  T
N361       C1227   1.157   1_545  T
C365        C366   1.403       .  A
C365        C370   1.420       .  A
C366        C367   1.412       .  A
C366        C371   1.457       .  S
C367        C368   1.449       .  A
C367        C374   1.450       .  S
C368        C369   1.436       .  A
C369        C370   1.422       .  A
C369        C372   1.449       .  S
C370        C373   1.453       .  S
C371        N378   1.157       .  T
C372        N377   1.158       .  T
C373        N375   1.157   1_545  T
C374        N376   1.158       .  T
C379        C380   1.395       .  A
C379        C384   1.408       .  A
C380        C381   1.419       .  A
C380        C385   1.455       .  S
C381        C382   1.458       .  A
C381        C388   1.453       .  S
C382        C383   1.444       .  A
C383        C384   1.422       .  A
C383        C386   1.450       .  S
C384        C387   1.456       .  S
C385        N392   1.157       .  T
C386        N391   1.158       .  T
C387        N389   1.157       .  T
C388        N390   1.158       .  T
C393        C394   1.447       .  A
C393        C398   1.456       .  A
C394        C395   1.420       .  A
C394        C399   1.453       .  S
C395        C396   1.414       .  A
C395        C402   1.458       .  S
C396        C397   1.399       .  A
C397        C398   1.417       .  A
C397        C400   1.456       .  S
C398        C401   1.454       .  S
C399        N406   1.159       .  T
C400        N405   1.157       .  T
C401        N403   1.158       .  T
C402        N404   1.158   1_545  T
C407        C408   1.414       .  A
C407        C412   1.399       .  A
C408        C409   1.422       .  A
C408        C413   1.447       .  S
C409        C410   1.435       .  A
C409        C416   1.449       .  S
C410        C411   1.448       .  A
C411        C412   1.415       .  A
C411        C414   1.446       .  S
C412        C415   1.457       .  S
C413        N420   1.154       .  T
C414        N419   1.157       .  T
C415        N417   1.157       .  T
C416        N418   1.158       .  T
C421        C422   1.431       .  A
C421        C426   1.454       .  A
C422        C423   1.411       .  A
C422        C427   1.445       .  S
C423        C424   1.404       .  A
C423        C430   1.455       .  S
C424        C425   1.388       .  A
C425        C426   1.406       .  A
C425        C428   1.457       .  S
C426        C429   1.450       .  S
C427        N434   1.157       .  T
C428       N1301   1.157       .  T
C429        N431   1.157       .  T
C430        N432   1.157       .  T
N433       C1296   1.157   1_545  T
Zn435       O440   1.958       .  S
Zn435      O1312   1.979       .  S
Zn435       O451   1.926       .  S
Zn435      O1307   1.907       .  S
Zn436      O1309   1.989       .  S
Zn436       O443   1.993       .  S
Zn436       O447   1.948       .  S
Zn436      O1307   1.931       .  S
Zn437       O442   2.037       .  S
Zn437       O445   2.015       .  S
Zn437       O448   1.935       .  S
Zn437       O439   1.922       .  S
Zn438       O446   2.117       .  S
Zn438       O449   2.100       .  S
Zn438       O450   2.101       .  S
Zn438      O1307   1.983       .  S
O439      Zn1303   1.907   1_545  S
O439      Zn1304   1.931   1_545  S
O439      Zn1306   1.983   1_545  S
O440        C452   1.263       .  A
O441      Zn1304   1.989   1_545  S
O441        C453   1.269       .  A
O442        C454   1.277       .  A
O443        C452   1.271       .  A
O444      Zn1303   1.979   1_545  S
O444        C454   1.268       .  A
O445        C453   1.275       .  A
O446       C1323   1.286       .  A
O447        C456   1.264       .  A
O448        C455   1.263       .  A
O449        C456   1.286       .  A
O450        C457   1.284       .  A
O451        C457   1.262       .  A
C452        C858   1.465       .  S
C453        C799   1.501       .  S
C454        C830   1.503       .  S
C455       O1314   1.286       .  A
C455        C813   1.490       .  S
C456        C841   1.494       .  S
C457        C785   1.483       .  S
Zn458       O463   2.001       .  S
Zn458      O2203   1.975       .  S
Zn458       O474   1.894       .  S
Zn458       O462   1.921       .  S
Zn459      O2200   1.999       .  S
Zn459       O466   1.985       .  S
Zn459       O470   1.905       .  S
Zn459       O462   1.911       .  S
Zn460       O465   2.025       .  S
Zn460       O468   2.022       .  S
Zn460       O471   1.968       .  S
Zn460      O2198   1.939       .  S
Zn461       O469   2.140       .  S
Zn461       O472   2.143       .  S
Zn461       O473   2.135       .  S
Zn461       O462   2.023       .  S
O462      Zn2196   1.939       .  S
O463        C475   1.269       .  A
O464      Zn2195   1.999   1_455  S
O464        C476   1.272       .  A
O465        C477   1.274       .  A
O466        C475   1.269       .  A
O467      Zn2194   1.975   1_455  S
O467        C477   1.268       .  A
O468        C476   1.275       .  A
O469       C2214   1.288       .  A
O470        C479   1.259       .  A
O471        C478   1.267       .  A
O472        C479   1.287       .  A
O473        C480   1.287       .  A
O474        C480   1.257       .  A
C475        C774   1.493       .  S
C476        C743   1.502       .  S
C477        C715   1.499       .  S
C478       O2205   1.288       .  A
C478        C701   1.501       .  S
C479        C729   1.498       .  S
C480        C757   1.509       .  S
Zn481       O486   1.990       .  S
Zn481       O497   1.915       .  S
Zn481       O485   1.885   1_556  S
Zn482       O489   1.985       .  S
Zn482       O493   1.945       .  S
Zn482       O485   1.900   1_556  S
Zn483       O488   2.013       .  S
Zn483       O491   2.000       .  S
Zn483       O494   1.934       .  S
Zn484       O492   2.136   1_556  S
Zn484       O495   2.148       .  S
Zn484       O496   2.144       .  S
Zn484       O485   1.962   1_556  S
O486        C498   1.271       .  A
O487        C499   1.271       .  A
O488        C500   1.272       .  A
O489        C498   1.270       .  A
O490        C500   1.268       .  A
O491        C499   1.275       .  A
O493        C502   1.258       .  A
O494        C501   1.262       .  A
O495        C502   1.291       .  A
O496        C503   1.290       .  A
O497        C503   1.260       .  A
C498        C687   1.478       .  S
C499        C617   1.475       .  S
C500        C662   1.473       .  S
C501        C676   1.513       .  S
C502        C631   1.510       .  S
C503        C648   1.505       .  S
Zn504      O1377   2.005       .  S
Zn504       O520   1.903   1_565  S
Zn504      O2244   1.920       .  S
Zn505      O2248   2.012       .  S
Zn505       O516   1.945   1_655  S
Zn505      O1376   1.929       .  S
Zn506      O2247   2.040   1_465  S
Zn506      O1382   2.021       .  S
Zn506       O517   1.941   1_565  S
Zn507       O515   2.084       .  S
Zn507       O518   2.075   1_545  S
Zn507       O519   2.111   1_455  S
Zn507       O508   2.011   1_445  S
O508      Zn2240   1.920       .  S
O508      Zn1373   1.929       .  S
O509      Zn1372   2.005       .  S
O509        C521   1.273       .  A
O510        C522   1.275       .  A
O511      Zn2242   2.040   1_545  S
O511        C523   1.277       .  A
O512      Zn2241   2.012       .  S
O512        C521   1.273       .  A
O513        C523   1.275       .  A
O514      Zn1374   2.021       .  S
O514        C522   1.276       .  A
O516        C525   1.265       .  A
O517        C524   1.265       .  A
O518       C1393   1.281       .  A
O519       C2262   1.282       .  A
O520        C526   1.254       .  A
C521        C606   1.508       .  S
C522        C578   1.504       .  S
C523        C589   1.503       .  S
C524        C561   1.480       .  S
C525       O1386   1.281       .  A
C525        C533   1.481       .  S
C526       O2255   1.282       .  A
C526        C550   1.520       .  S
C527        C603   1.603       .  S
C527        C673   1.626       .  S
C527        C760   1.613       .  S
C527        C844   1.596       .  S
C528        C592   1.615       .  S
C528        C645   1.612       .  S
C528        C732   1.619       .  S
C528        C816   1.615       .  S
C529        C575   1.606       .  S
C529        C634   1.629       .  S
C529        C704   1.625       .  S
C529        C788   1.589       .  S
C530        C564   1.607       .  S
C530        C690   1.600       .  S
C530        C746   1.606       .  S
C530        C827   1.614       .  S
C531        C547   1.621       .  S
C531        C659   1.612       .  S
C531        C771   1.596       .  S
C531        C802   1.599       .  S
C532        C536   1.599       .  S
C532        C620   1.612       .  S
C532        C718   1.598       .  S
C532        C855   1.598       .  S
C533        C534   1.401       .  A
C533        C538   1.395       .  A
C534        C535   1.414       .  A
C534        C539   1.450       .  S
C535        C536   1.439       .  A
C535        C542   1.446       .  S
C536        C537   1.451       .  A
C537        C538   1.416       .  A
C537        C540   1.447       .  S
C538        C541   1.456       .  S
C540        N545   1.157       .  T
C541        N543   1.157       .  T
C542        N544   1.158       .  T
C547        C548   1.454       .  A
C547        C552   1.431       .  A
C548        C549   1.416       .  A
C548        C553   1.453       .  S
C549        C550   1.403       .  A
C549        C556   1.455       .  S
C550        C551   1.432       .  A
C551        C552   1.420       .  A
C551        C554   1.458       .  S
C552        C555   1.449       .  S
C553        N560   1.158       .  T
C554        N559   1.158       .  T
C555        N557   1.158       .  T
C556       N2294   1.157       .  T
N558       C2292   1.157   1_455  T
C561        C562   1.400       .  A
C561        C566   1.395       .  A
C562        C563   1.413       .  A
C562        C567   1.458       .  S
C563        C564   1.444       .  A
C563        C570   1.442       .  S
C564        C565   1.453       .  A
C565        C566   1.419       .  A
C565        C568   1.451       .  S
C566        C569   1.453       .  S
C567        N574   1.157   1_455  T
C568        N573   1.157       .  T
C570        N572   1.154       .  T
C575        C576   1.442       .  A
C575        C580   1.428       .  A
C576        C577   1.418       .  A
C576        C581   1.448       .  S
C577        C578   1.406       .  A
C577        C584   1.455       .  S
C578        C579   1.413       .  A
C579        C580   1.414       .  A
C579        C582   1.450       .  S
C580        C583   1.451       .  S
C581        N588   1.158       .  T
C583        N585   1.158       .  T
C584        N586   1.157       .  T
C589        C590   1.411       .  A
C589        C594   1.399       .  A
C590        C591   1.421       .  A
C590        C595   1.453       .  S
C591        C592   1.445       .  A
C591        C598   1.449       .  S
C592        C593   1.455       .  A
C593        C594   1.418       .  A
C593        C596   1.452       .  S
C594        C597   1.454       .  S
C595        N602   1.156       .  T
C596        N601   1.157       .  T
C597       N1467   1.157       .  T
C598        N600   1.158       .  T
N599       C1465   1.157       .  T
C603        C604   1.434       .  A
C603        C608   1.444       .  A
C604        C605   1.418       .  A
C604        C609   1.451       .  S
C605        C606   1.420       .  A
C605        C612   1.453       .  S
C606        C607   1.411       .  A
C607        C608   1.418       .  A
C607        C610   1.455       .  S
C608        C611   1.450       .  S
C609        N616   1.158       .  T
C611        N613   1.158       .  T
C612       N2350   1.157       .  T
N614       C2348   1.157   1_455  T
C617        C618   1.409       .  A
C617        C622   1.390       .  A
C618        C619   1.423       .  A
C618        C623   1.453       .  S
C619        C620   1.438       .  A
C619        C626   1.445       .  S
C620        C621   1.449       .  A
C621        C622   1.400       .  A
C621        C624   1.451       .  S
C622        C625   1.456       .  S
C623        N630   1.157       .  T
C624        N629   1.158       .  T
C625        N627   1.157       .  T
C626        N628   1.157       .  T
C631        C632   1.396       .  A
C631        C636   1.428       .  A
C632        C633   1.409       .  A
C632        C637   1.452       .  S
C633        C634   1.450       .  A
C633        C640   1.449       .  S
C634        C635   1.438       .  A
C635        C636   1.426       .  A
C635        C638   1.456       .  S
C636        C639   1.454       .  S
C637        N644   1.157       .  T
C638        N643   1.158       .  T
C639        N641   1.157       .  T
C640        N642   1.158       .  T
C645        C646   1.438       .  A
C645        C650   1.455       .  A
C646        C647   1.403       .  A
C646        C651   1.453       .  S
C647        C648   1.416       .  A
C647        C654   1.452       .  S
C648        C649   1.404       .  A
C649        C650   1.427       .  A
C649        C652   1.452       .  S
C650        C653   1.451       .  S
C651        N658   1.159       .  T
C652        N657   1.157       .  T
C653        N655   1.158       .  T
C654        N656   1.157       .  T
C659        C660   1.458       .  A
C659        C664   1.435       .  A
C660        C661   1.404       .  A
C660        C665   1.454       .  S
C661        C662   1.386       .  A
C661        C668   1.457       .  S
C662        C663   1.410       .  A
C663        C664   1.420       .  A
C663        C666   1.455       .  S
C664        C667   1.447       .  S
C665        N672   1.158       .  T
C666        N671   1.157       .  T
C667        N669   1.157       .  T
C668        N670   1.157       .  T
C673        C674   1.435       .  A
C673        C678   1.451       .  A
C674        C675   1.426       .  A
C674        C679   1.447       .  S
C675        C676   1.427       .  A
C675        C682   1.455       .  S
C676        C677   1.398       .  A
C677        C678   1.414       .  A
C677        C680   1.452       .  S
C678        C681   1.448       .  S
C679        N686   1.158       .  T
C681        N683   1.158       .  T
C682        N684   1.157       .  T
C687        C688   1.395       .  A
C687        C692   1.401       .  A
C688        C689   1.414       .  A
C688        C693   1.453       .  S
C689        C690   1.457       .  A
C689        C696   1.449       .  S
C690        C691   1.440       .  A
C691        C692   1.397       .  A
C691        C694   1.449       .  S
C692        C695   1.452       .  S
C694        N699   1.158       .  T
C695        N697   1.158       .  T
C696        N698   1.158       .  T
C701        C702   1.408       .  A
C701        C706   1.410       .  A
C702        C703   1.423       .  A
C702        C707   1.452       .  S
C703        C704   1.436       .  A
C703        C710   1.450       .  S
C704        C705   1.425       .  A
C705        C706   1.420       .  A
C705        C708   1.448       .  S
C706        C709   1.451       .  S
C707        N714   1.157       .  T
C708        N713   1.158       .  T
C709        N711   1.157       .  T
C710        N712   1.158       .  T
C715        C716   1.410       .  A
C715        C720   1.415       .  A
C716        C717   1.415       .  A
C716        C721   1.455       .  S
C717        C718   1.440       .  A
C717        C724   1.451       .  S
C718        C719   1.436       .  A
C719        C720   1.416       .  A
C719        C722   1.450       .  S
C720        C723   1.453       .  S
C721        N728   1.158       .  T
C722        N727   1.158       .  T
C723        N725   1.157       .  T
C724        N726   1.157       .  T
C729        C730   1.396       .  A
C729        C734   1.406       .  A
C730        C731   1.426       .  A
C730        C735   1.452       .  S
C731        C732   1.455       .  A
C731        C738   1.450       .  S
C732        C733   1.448       .  A
C733        C734   1.418       .  A
C733        C736   1.446       .  S
C734        C737   1.457       .  S
C735        N742   1.157       .  T
C736        N741   1.157       .  T
C737        N739   1.156       .  T
C738        N740   1.157       .  T
C743        C744   1.410       .  A
C743        C748   1.403       .  A
C744        C745   1.420       .  A
C744        C749   1.454       .  S
C745        C746   1.444       .  A
C745        C752   1.450       .  S
C746        C747   1.449       .  A
C747        C748   1.416       .  A
C747        C750   1.452       .  S
C748        C751   1.455       .  S
C749        N756   1.157       .  T
C750        N755   1.157       .  T
C751        N753   1.157       .  T
C752        N754   1.158       .  T
C757        C758   1.418       .  A
C757        C762   1.398       .  A
C758        C759   1.409       .  A
C758        C763   1.451       .  S
C759        C760   1.421       .  A
C759        C766   1.447       .  S
C760        C761   1.465       .  A
C761        C762   1.426       .  A
C761        C764   1.454       .  S
C762        C765   1.455       .  S
C763       N2506   1.155       .  T
C764        N769   1.158       .  T
C765        N767   1.158       .  T
C766        N768   1.157       .  T
N770       C2499   1.155       .  T
C771        C772   1.440       .  A
C771        C776   1.449       .  A
C772        C773   1.420       .  A
C772        C777   1.448       .  S
C773        C774   1.414       .  A
C773        C780   1.456       .  S
C774        C775   1.402       .  A
C775        C776   1.412       .  A
C775        C778   1.458       .  S
C776        C779   1.450       .  S
C777        N784   1.158       .  T
C778        N783   1.157       .  T
C779        N781   1.157       .  T
C780        N782   1.157       .  T
C785        C786   1.399       .  A
C785        C790   1.404       .  A
C786        C787   1.416       .  A
C786        C791   1.452       .  S
C787        C788   1.444       .  A
C787        C794   1.451       .  S
C788        C789   1.445       .  A
C789        C790   1.416       .  A
C789        C792   1.453       .  S
C790        C793   1.456       .  S
C791        N798   1.157       .  T
C792        N797   1.158       .  T
C793       N1663   1.157       .  T
C794        N796   1.157       .  T
N795       C1661   1.157   1_545  T
C799        C800   1.403       .  A
C799        C804   1.420       .  A
C800        C801   1.412       .  A
C800        C805   1.457       .  S
C801        C802   1.449       .  A
C801        C808   1.450       .  S
C802        C803   1.436       .  A
C803        C804   1.422       .  A
C803        C806   1.449       .  S
C804        C807   1.453       .  S
C805        N812   1.157       .  T
C806        N811   1.158       .  T
C807        N809   1.157   1_545  T
C808        N810   1.158       .  T
C813        C814   1.395       .  A
C813        C818   1.408       .  A
C814        C815   1.419       .  A
C814        C819   1.455       .  S
C815        C816   1.458       .  A
C815        C822   1.453       .  S
C816        C817   1.444       .  A
C817        C818   1.422       .  A
C817        C820   1.450       .  S
C818        C821   1.456       .  S
C819        N826   1.157       .  T
C820        N825   1.158       .  T
C821        N823   1.157       .  T
C822        N824   1.158       .  T
C827        C828   1.447       .  A
C827        C832   1.456       .  A
C828        C829   1.420       .  A
C828        C833   1.453       .  S
C829        C830   1.414       .  A
C829        C836   1.458       .  S
C830        C831   1.399       .  A
C831        C832   1.417       .  A
C831        C834   1.456       .  S
C832        C835   1.454       .  S
C833        N840   1.159       .  T
C834        N839   1.157       .  T
C835        N837   1.158       .  T
C836        N838   1.158   1_545  T
C841        C842   1.414       .  A
C841        C846   1.399       .  A
C842        C843   1.422       .  A
C842        C847   1.447       .  S
C843        C844   1.435       .  A
C843        C850   1.449       .  S
C844        C845   1.448       .  A
C845        C846   1.415       .  A
C845        C848   1.446       .  S
C846        C849   1.457       .  S
C847        N854   1.154       .  T
C848        N853   1.157       .  T
C849        N851   1.157       .  T
C850        N852   1.158       .  T
C855        C856   1.431       .  A
C855        C860   1.454       .  A
C856        C857   1.411       .  A
C856        C861   1.445       .  S
C857        C858   1.404       .  A
C857        C864   1.455       .  S
C858        C859   1.388       .  A
C859        C860   1.406       .  A
C859        C862   1.457       .  S
C860        C863   1.450       .  S
C861        N868   1.157       .  T
C862       N1735   1.157       .  T
C863        N865   1.157       .  T
C864        N866   1.157       .  T
N867       C1730   1.157   1_545  T
Zn869       O874   1.958       .  S
Zn869       O885   1.926       .  S
Zn870       O877   1.993       .  S
Zn870       O881   1.948       .  S
Zn871       O876   2.037       .  S
Zn871       O879   2.015       .  S
Zn871       O882   1.935       .  S
Zn871       O873   1.922       .  S
Zn872       O880   2.117   1_565  S
Zn872       O883   2.100       .  S
Zn872       O884   2.101       .  S
O874        C886   1.263       .  A
O875        C887   1.269       .  A
O876        C888   1.277       .  A
O877        C886   1.271       .  A
O878        C888   1.268       .  A
O879        C887   1.275       .  A
O881        C890   1.264       .  A
O882        C889   1.263       .  A
O883        C890   1.286       .  A
O884        C891   1.284       .  A
O885        C891   1.262       .  A
C886       C1292   1.465       .  S
C887       C1233   1.501       .  S
C888       C1264   1.503       .  S
C889       C1247   1.490       .  S
C890       C1275   1.493       .  S
C891       C1219   1.483       .  S
Zn892       O897   2.001       .  S
Zn892      O2637   1.975       .  S
Zn892       O908   1.894       .  S
Zn892       O896   1.921       .  S
Zn893      O2634   1.999       .  S
Zn893       O900   1.985       .  S
Zn893       O904   1.905       .  S
Zn893       O896   1.911       .  S
Zn894       O899   2.025       .  S
Zn894       O902   2.022       .  S
Zn894       O905   1.968       .  S
Zn894      O2632   1.939       .  S
Zn895       O903   2.140       .  S
Zn895       O906   2.143       .  S
Zn895       O907   2.135       .  S
Zn895       O896   2.023       .  S
O896      Zn2630   1.939       .  S
O897        C909   1.269       .  A
O898      Zn2629   1.999   1_455  S
O898        C910   1.272       .  A
O899        C911   1.274       .  A
O900        C909   1.269       .  A
O901      Zn2628   1.975   1_455  S
O901        C911   1.268       .  A
O902        C910   1.275       .  A
O903       C2648   1.288       .  A
O904        C913   1.259       .  A
O905        C912   1.267       .  A
O906        C913   1.287       .  A
O907        C914   1.287       .  A
O908        C914   1.257       .  A
C909       C1208   1.493       .  S
C910       C1177   1.502       .  S
C911       C1149   1.499       .  S
C912       O2639   1.288       .  A
C912       C1135   1.501       .  S
C913       C1163   1.498       .  S
C914       C1191   1.509       .  S
Zn915       O920   1.990       .  S
Zn915      O1358   1.970       .  S
Zn915       O931   1.915       .  S
Zn915       O919   1.885       .  S
Zn916      O1355   2.010       .  S
Zn916       O923   1.985       .  S
Zn916       O927   1.945       .  S
Zn916       O919   1.900       .  S
Zn917       O922   2.013       .  S
Zn917       O925   2.000       .  S
Zn917       O928   1.934       .  S
Zn917      O1353   1.905       .  S
Zn918       O926   2.136       .  S
Zn918       O929   2.148       .  S
Zn918       O930   2.144       .  S
Zn918       O919   1.962       .  S
O919      Zn1351   1.905       .  S
O920        C932   1.271       .  A
O921      Zn1350   2.010   1_554  S
O921        C933   1.271       .  A
O922        C934   1.272       .  A
O923        C932   1.270       .  A
O924      Zn1349   1.970   1_554  S
O924        C934   1.268       .  A
O925        C933   1.275       .  A
O926       C1369   1.291       .  A
O927        C936   1.258       .  A
O928        C935   1.262       .  A
O929        C936   1.291       .  A
O930        C937   1.290       .  A
O931        C937   1.260       .  A
C932       C1121   1.478       .  S
C933       C1051   1.475       .  S
C934       C1096   1.473       .  S
C935       O1360   1.291       .  A
C935       C1110   1.513       .  S
C936       C1065   1.510       .  S
C937       C1082   1.505       .  S
Zn938      O1381   2.023       .  S
Zn938       O954   1.903   1_556  S
Zn938      O2678   1.920       .  S
Zn939      O1378   2.024   1_655  S
Zn939      O2682   2.012   1_556  S
Zn939       O950   1.945   1_656  S
Zn940      O2681   2.040   1_455  S
Zn940       O951   1.941       .  S
Zn940      O1376   1.918   1_455  S
Zn941       O949   2.084   1_554  S
Zn941       O952   2.075       .  S
Zn941       O953   2.111   1_455  S
Zn941       O942   2.011   1_454  S
O942      Zn2674   1.920       .  S
O942      Zn1374   1.918   1_655  S
O943        C955   1.273       .  A
O944      Zn1373   2.024   1_455  S
O944        C956   1.275       .  A
O945      Zn2676   2.040       .  S
O945        C957   1.277       .  A
O946      Zn2675   2.012   1_554  S
O946        C955   1.273       .  A
O947      Zn1372   2.023       .  S
O947        C957   1.275       .  A
O948        C956   1.276       .  A
O949       C1392   1.281       .  A
O950        C959   1.265       .  A
O951        C958   1.265       .  A
O953       C2696   1.282       .  A
O954        C960   1.254       .  A
C955       C1040   1.508       .  S
C956       C1012   1.504       .  S
C957       C1023   1.503       .  S
C958       O1383   1.281       .  A
C958        C995   1.480       .  S
C959        C967   1.481       .  S
C960       O2689   1.282       .  A
C960        C984   1.520       .  S
C961       C1037   1.603       .  S
C961       C1107   1.626       .  S
C961       C1194   1.613       .  S
C961       C1278   1.596       .  S
C962       C1026   1.615       .  S
C962       C1079   1.612       .  S
C962       C1166   1.619       .  S
C962       C1250   1.615       .  S
C963       C1009   1.606       .  S
C963       C1068   1.629       .  S
C963       C1138   1.625       .  S
C963       C1222   1.589       .  S
C964        C998   1.607       .  S
C964       C1124   1.600       .  S
C964       C1180   1.606       .  S
C964       C1261   1.614       .  S
C965        C981   1.621       .  S
C965       C1093   1.612       .  S
C965       C1205   1.596       .  S
C965       C1236   1.599       .  S
C966        C970   1.599       .  S
C966       C1054   1.612       .  S
C966       C1152   1.598       .  S
C966       C1289   1.598       .  S
C967        C968   1.401       .  A
C967        C972   1.395       .  A
C968        C969   1.414       .  A
C968        C973   1.450       .  S
C969        C970   1.439       .  A
C969        C976   1.446       .  S
C970        C971   1.451       .  A
C971        C972   1.416       .  A
C971        C974   1.447       .  S
C972        C975   1.456       .  S
C973       N1414   1.156   1_554  T
C974        N979   1.157       .  T
C975        N977   1.157       .  T
C976        N978   1.158       .  T
N980       C1407   1.156       .  T
C981        C982   1.454       .  A
C981        C986   1.431       .  A
C982        C983   1.416       .  A
C982        C987   1.453       .  S
C983        C984   1.403       .  A
C983        C990   1.455       .  S
C984        C985   1.432       .  A
C985        C986   1.420       .  A
C985        C988   1.458       .  S
C986        C989   1.449       .  S
C987        N994   1.158       .  T
C988        N993   1.158       .  T
C989        N991   1.158       .  T
C990       N2728   1.157       .  T
N992       C2726   1.157   1_455  T
C995        C996   1.400       .  A
C995       C1000   1.395       .  A
C996        C997   1.413       .  A
C996       C1001   1.458       .  S
C997        C998   1.444       .  A
C997       C1004   1.442       .  S
C998        C999   1.453       .  A
C999       C1000   1.419       .  A
C999       C1002   1.451       .  S
C1000      C1003   1.453       .  S
C1001      N1008   1.157   1_455  T
C1002      N1007   1.157       .  T
C1003      N1439   1.157       .  T
C1004      N1006   1.154       .  T
N1005      C1437   1.157       .  T
C1009      C1010   1.442       .  A
C1009      C1014   1.428       .  A
C1010      C1011   1.418       .  A
C1010      C1015   1.448       .  S
C1011      C1012   1.406       .  A
C1011      C1018   1.455       .  S
C1012      C1013   1.413       .  A
C1013      C1014   1.414       .  A
C1013      C1016   1.450       .  S
C1014      C1017   1.451       .  S
C1015      N1022   1.158       .  T
C1016      N1455   1.157       .  T
C1017      N1019   1.158       .  T
C1018      N1020   1.157       .  T
N1021      C1450   1.157       .  T
C1023      C1024   1.411       .  A
C1023      C1028   1.399       .  A
C1024      C1025   1.421       .  A
C1024      C1029   1.453       .  S
C1025      C1026   1.445       .  A
C1025      C1032   1.449       .  S
C1026      C1027   1.455       .  A
C1027      C1028   1.418       .  A
C1027      C1030   1.452       .  S
C1028      C1031   1.454       .  S
C1029      N1036   1.156       .  T
C1030      N1035   1.157       .  T
C1032      N1034   1.158       .  T
C1037      C1038   1.434       .  A
C1037      C1042   1.444       .  A
C1038      C1039   1.418       .  A
C1038      C1043   1.451       .  S
C1039      C1040   1.420       .  A
C1039      C1046   1.453       .  S
C1040      C1041   1.411       .  A
C1041      C1042   1.418       .  A
C1041      C1044   1.455       .  S
C1042      C1045   1.450       .  S
C1043      N1050   1.158       .  T
C1044      N1483   1.157       .  T
C1045      N1047   1.158       .  T
C1046      N2784   1.157       .  T
N1048      C2782   1.157   1_455  T
N1049      C1478   1.157       .  T
C1051      C1052   1.409       .  A
C1051      C1056   1.390       .  A
C1052      C1053   1.423       .  A
C1052      C1057   1.453       .  S
C1053      C1054   1.438       .  A
C1053      C1060   1.445       .  S
C1054      C1055   1.449       .  A
C1055      C1056   1.400       .  A
C1055      C1058   1.451       .  S
C1056      C1059   1.456       .  S
C1057      N1064   1.157       .  T
C1058      N1063   1.158       .  T
C1059      N1061   1.157       .  T
C1060      N1062   1.157       .  T
C1065      C1066   1.396       .  A
C1065      C1070   1.428       .  A
C1066      C1067   1.409       .  A
C1066      C1071   1.452       .  S
C1067      C1068   1.450       .  A
C1067      C1074   1.449       .  S
C1068      C1069   1.438       .  A
C1069      C1070   1.426       .  A
C1069      C1072   1.456       .  S
C1070      C1073   1.454       .  S
C1071      N1078   1.157       .  T
C1072      N1077   1.158       .  T
C1073      N1075   1.157       .  T
C1074      N1076   1.158       .  T
C1079      C1080   1.438       .  A
C1079      C1084   1.455       .  A
C1080      C1081   1.403       .  A
C1080      C1085   1.453       .  S
C1081      C1082   1.416       .  A
C1081      C1088   1.452       .  S
C1082      C1083   1.404       .  A
C1083      C1084   1.427       .  A
C1083      C1086   1.452       .  S
C1084      C1087   1.451       .  S
C1085      N1092   1.159       .  T
C1086      N1091   1.157       .  T
C1087      N1089   1.158       .  T
C1088      N1090   1.157       .  T
C1093      C1094   1.458       .  A
C1093      C1098   1.435       .  A
C1094      C1095   1.404       .  A
C1094      C1099   1.454       .  S
C1095      C1096   1.386       .  A
C1095      C1102   1.457       .  S
C1096      C1097   1.410       .  A
C1097      C1098   1.420       .  A
C1097      C1100   1.455       .  S
C1098      C1101   1.447       .  S
C1099      N1106   1.158       .  T
C1100      N1105   1.157       .  T
C1101      N1103   1.157       .  T
C1102      N1104   1.157       .  T
C1107      C1108   1.435       .  A
C1107      C1112   1.451       .  A
C1108      C1109   1.426       .  A
C1108      C1113   1.447       .  S
C1109      C1110   1.427       .  A
C1109      C1116   1.455       .  S
C1110      C1111   1.398       .  A
C1111      C1112   1.414       .  A
C1111      C1114   1.452       .  S
C1112      C1115   1.448       .  S
C1113      N1120   1.158       .  T
C1114      N1553   1.157   1_554  T
C1115      N1117   1.158       .  T
C1116      N1118   1.157       .  T
N1119      C1548   1.157       .  T
C1121      C1122   1.395       .  A
C1121      C1126   1.401       .  A
C1122      C1123   1.414       .  A
C1122      C1127   1.453       .  S
C1123      C1124   1.457       .  A
C1123      C1130   1.449       .  S
C1124      C1125   1.440       .  A
C1125      C1126   1.397       .  A
C1125      C1128   1.449       .  S
C1126      C1129   1.452       .  S
C1127      N1568   1.157       .  T
C1128      N1133   1.158       .  T
C1129      N1131   1.158       .  T
C1130      N1132   1.158       .  T
N1134      C1561   1.157   1_554  T
C1135      C1136   1.408       .  A
C1135      C1140   1.410       .  A
C1136      C1137   1.423       .  A
C1136      C1141   1.452       .  S
C1137      C1138   1.436       .  A
C1137      C1144   1.450       .  S
C1138      C1139   1.425       .  A
C1139      C1140   1.420       .  A
C1139      C1142   1.448       .  S
C1140      C1143   1.451       .  S
C1141      N1148   1.157       .  T
C1142      N1147   1.158       .  T
C1143      N1145   1.157       .  T
C1144      N1146   1.158       .  T
C1149      C1150   1.410       .  A
C1149      C1154   1.415       .  A
C1150      C1151   1.415       .  A
C1150      C1155   1.455       .  S
C1151      C1152   1.440       .  A
C1151      C1158   1.451       .  S
C1152      C1153   1.436       .  A
C1153      C1154   1.416       .  A
C1153      C1156   1.450       .  S
C1154      C1157   1.453       .  S
C1155      N1162   1.158       .  T
C1156      N1161   1.158       .  T
C1157      N1159   1.157       .  T
C1158      N1160   1.157       .  T
C1163      C1164   1.396       .  A
C1163      C1168   1.406       .  A
C1164      C1165   1.426       .  A
C1164      C1169   1.452       .  S
C1165      C1166   1.455       .  A
C1165      C1172   1.450       .  S
C1166      C1167   1.448       .  A
C1167      C1168   1.418       .  A
C1167      C1170   1.446       .  S
C1168      C1171   1.457       .  S
C1169      N1176   1.157       .  T
C1170      N1175   1.157       .  T
C1171      N1173   1.156       .  T
C1172      N1174   1.157       .  T
C1177      C1178   1.410       .  A
C1177      C1182   1.403       .  A
C1178      C1179   1.420       .  A
C1178      C1183   1.454       .  S
C1179      C1180   1.444       .  A
C1179      C1186   1.450       .  S
C1180      C1181   1.449       .  A
C1181      C1182   1.416       .  A
C1181      C1184   1.452       .  S
C1182      C1185   1.455       .  S
C1183      N1190   1.157       .  T
C1184      N1189   1.157       .  T
C1185      N1187   1.157       .  T
C1186      N1188   1.158       .  T
C1191      C1192   1.418       .  A
C1191      C1196   1.398       .  A
C1192      C1193   1.409       .  A
C1192      C1197   1.451       .  S
C1193      C1194   1.421       .  A
C1193      C1200   1.447       .  S
C1194      C1195   1.465       .  A
C1195      C1196   1.426       .  A
C1195      C1198   1.454       .  S
C1196      C1199   1.455       .  S
C1197      N2940   1.155       .  T
C1198      N1203   1.158       .  T
C1199      N1201   1.158       .  T
C1200      N1202   1.157       .  T
N1204      C2933   1.155       .  T
C1205      C1206   1.440       .  A
C1205      C1210   1.449       .  A
C1206      C1207   1.420       .  A
C1206      C1211   1.448       .  S
C1207      C1208   1.414       .  A
C1207      C1214   1.456       .  S
C1208      C1209   1.402       .  A
C1209      C1210   1.412       .  A
C1209      C1212   1.458       .  S
C1210      C1213   1.450       .  S
C1211      N1218   1.158       .  T
C1212      N1217   1.157       .  T
C1213      N1215   1.157       .  T
C1214      N1216   1.157       .  T
C1219      C1220   1.399       .  A
C1219      C1224   1.404       .  A
C1220      C1221   1.416       .  A
C1220      C1225   1.452       .  S
C1221      C1222   1.444       .  A
C1221      C1228   1.451       .  S
C1222      C1223   1.445       .  A
C1223      C1224   1.416       .  A
C1223      C1226   1.453       .  S
C1224      C1227   1.456       .  S
C1225      N1232   1.157       .  T
C1226      N1231   1.158       .  T
C1228      N1230   1.157       .  T
C1233      C1234   1.403       .  A
C1233      C1238   1.420       .  A
C1234      C1235   1.412       .  A
C1234      C1239   1.457       .  S
C1235      C1236   1.449       .  A
C1235      C1242   1.450       .  S
C1236      C1237   1.436       .  A
C1237      C1238   1.422       .  A
C1237      C1240   1.449       .  S
C1238      C1241   1.453       .  S
C1239      N1246   1.157       .  T
C1240      N1245   1.158       .  T
C1241      N1243   1.157       .  T
C1242      N1244   1.158       .  T
C1247      C1248   1.395       .  A
C1247      C1252   1.408       .  A
C1248      C1249   1.419       .  A
C1248      C1253   1.455       .  S
C1249      C1250   1.458       .  A
C1249      C1256   1.453       .  S
C1250      C1251   1.444       .  A
C1251      C1252   1.422       .  A
C1251      C1254   1.450       .  S
C1252      C1255   1.456       .  S
C1253      N1260   1.157       .  T
C1254      N1259   1.158       .  T
C1255      N1257   1.157       .  T
C1256      N1258   1.158       .  T
C1261      C1262   1.447       .  A
C1261      C1266   1.456       .  A
C1262      C1263   1.420       .  A
C1262      C1267   1.453       .  S
C1263      C1264   1.414       .  A
C1263      C1270   1.458       .  S
C1264      C1265   1.399       .  A
C1265      C1266   1.417       .  A
C1265      C1268   1.456       .  S
C1266      C1269   1.454       .  S
C1267      N1274   1.159       .  T
C1268      N1273   1.157       .  T
C1269      N1271   1.158       .  T
C1270      N1272   1.158       .  T
C1275      C1276   1.414       .  A
C1275      C1280   1.399       .  A
C1276      C1277   1.422       .  A
C1276      C1281   1.447       .  S
C1277      C1278   1.435       .  A
C1277      C1284   1.449       .  S
C1278      C1279   1.448       .  A
C1279      C1280   1.415       .  A
C1279      C1282   1.446       .  S
C1280      C1283   1.457       .  S
C1281      N1288   1.154       .  T
C1282      N1287   1.157       .  T
C1283      N1285   1.157       .  T
C1284      N1286   1.158       .  T
C1289      C1290   1.431       .  A
C1289      C1294   1.454       .  A
C1290      C1291   1.411       .  A
C1290      C1295   1.445       .  S
C1291      C1292   1.404       .  A
C1291      C1298   1.455       .  S
C1292      C1293   1.388       .  A
C1293      C1294   1.406       .  A
C1293      C1296   1.457       .  S
C1294      C1297   1.450       .  S
C1295      N1302   1.157       .  T
C1297      N1299   1.157       .  T
C1298      N1300   1.157       .  T
Zn1303     O1308   1.958       .  S
Zn1303     O1319   1.926       .  S
Zn1304     O1311   1.993       .  S
Zn1304     O1315   1.948       .  S
Zn1305     O1310   2.037       .  S
Zn1305     O1313   2.015       .  S
Zn1305     O1316   1.935       .  S
Zn1305     O1307   1.922       .  S
Zn1306     O1314   2.117   1_565  S
Zn1306     O1317   2.100       .  S
Zn1306     O1318   2.101       .  S
O1308      C1320   1.263       .  A
O1309      C1321   1.269       .  A
O1310      C1322   1.277       .  A
O1311      C1320   1.271       .  A
O1312      C1322   1.268       .  A
O1313      C1321   1.275       .  A
O1315      C1324   1.264       .  A
O1316      C1323   1.263       .  A
O1317      C1324   1.286       .  A
O1318      C1325   1.284       .  A
O1319      C1325   1.262       .  A
C1320      C1726   1.465       .  S
C1321      C1667   1.501       .  S
C1322      C1698   1.503       .  S
C1323      C1681   1.490       .  S
C1324      C1709   1.493       .  S
C1325      C1653   1.483       .  S
Zn1326     O1331   2.001       .  S
Zn1326     O3071   1.975       .  S
Zn1326     O1342   1.894       .  S
Zn1326     O1330   1.921       .  S
Zn1327     O3068   1.999       .  S
Zn1327     O1334   1.985       .  S
Zn1327     O1338   1.905       .  S
Zn1327     O1330   1.911       .  S
Zn1328     O1333   2.025       .  S
Zn1328     O1336   2.022       .  S
Zn1328     O1339   1.968       .  S
Zn1328     O3066   1.939       .  S
Zn1329     O1337   2.140       .  S
Zn1329     O1340   2.143       .  S
Zn1329     O1341   2.135       .  S
Zn1329     O1330   2.023       .  S
O1330     Zn3064   1.939       .  S
O1331      C1343   1.269       .  A
O1332     Zn3063   1.999   1_455  S
O1332      C1344   1.272       .  A
O1333      C1345   1.274       .  A
O1334      C1343   1.269       .  A
O1335     Zn3062   1.975   1_455  S
O1335      C1345   1.268       .  A
O1336      C1344   1.275       .  A
O1337      C3082   1.288       .  A
O1338      C1347   1.259       .  A
O1339      C1346   1.267       .  A
O1340      C1347   1.287       .  A
O1341      C1348   1.287       .  A
O1342      C1348   1.257       .  A
C1343      C1642   1.493       .  S
C1344      C1611   1.502       .  S
C1345      C1583   1.499       .  S
C1346      O3073   1.288       .  A
C1346      C1569   1.501       .  S
C1347      C1597   1.498       .  S
C1348      C1625   1.509       .  S
Zn1349     O1354   1.990       .  S
Zn1349     O1365   1.915       .  S
Zn1349     O1353   1.885   1_556  S
Zn1350     O1357   1.985       .  S
Zn1350     O1361   1.945       .  S
Zn1350     O1353   1.900   1_556  S
Zn1351     O1356   2.013       .  S
Zn1351     O1359   2.000       .  S
Zn1351     O1362   1.934       .  S
Zn1352     O1360   2.136   1_556  S
Zn1352     O1363   2.148       .  S
Zn1352     O1364   2.144       .  S
Zn1352     O1353   1.962   1_556  S
O1354      C1366   1.271       .  A
O1355      C1367   1.271       .  A
O1356      C1368   1.272       .  A
O1357      C1366   1.270       .  A
O1358      C1368   1.268       .  A
O1359      C1367   1.275       .  A
O1361      C1370   1.258       .  A
O1362      C1369   1.262       .  A
O1363      C1370   1.291       .  A
O1364      C1371   1.290       .  A
O1365      C1371   1.260       .  A
C1366      C1555   1.478       .  S
C1367      C1485   1.475       .  S
C1368      C1530   1.473       .  S
C1369      C1544   1.513       .  S
C1370      C1499   1.510       .  S
C1371      C1516   1.505       .  S
Zn1372     O1388   1.903       .  S
Zn1372     O3112   1.920       .  S
Zn1373     O3116   2.012       .  S
Zn1373     O1384   1.945   1_655  S
Zn1374     O3115   2.040   1_455  S
Zn1374     O1385   1.941       .  S
Zn1375     O1383   2.084       .  S
Zn1375     O1386   2.075       .  S
Zn1375     O1387   2.111   1_455  S
Zn1375     O1376   2.011   1_455  S
O1376     Zn3108   1.920       .  S
O1377      C1389   1.273       .  A
O1378      C1390   1.275       .  A
O1379     Zn3110   2.040       .  S
O1379      C1391   1.277       .  A
O1380     Zn3109   2.012       .  S
O1380      C1389   1.273       .  A
O1381      C1391   1.275       .  A
O1382      C1390   1.276       .  A
O1384      C1393   1.265       .  A
O1385      C1392   1.265       .  A
O1387      C3130   1.282       .  A
O1388      C1394   1.254       .  A
C1389      C1474   1.508       .  S
C1390      C1446   1.504       .  S
C1391      C1457   1.503       .  S
C1392      C1429   1.480       .  S
C1393      C1401   1.481       .  S
C1394      O3123   1.282       .  A
C1394      C1418   1.520       .  S
C1395      C1471   1.603       .  S
C1395      C1541   1.626       .  S
C1395      C1628   1.613       .  S
C1395      C1712   1.596       .  S
C1396      C1460   1.615       .  S
C1396      C1513   1.612       .  S
C1396      C1600   1.619       .  S
C1396      C1684   1.615       .  S
C1397      C1443   1.606       .  S
C1397      C1502   1.629       .  S
C1397      C1572   1.625       .  S
C1397      C1656   1.589       .  S
C1398      C1432   1.607       .  S
C1398      C1558   1.600       .  S
C1398      C1614   1.606       .  S
C1398      C1695   1.614       .  S
C1399      C1415   1.621       .  S
C1399      C1527   1.612       .  S
C1399      C1639   1.596       .  S
C1399      C1670   1.599       .  S
C1400      C1404   1.599       .  S
C1400      C1488   1.612       .  S
C1400      C1586   1.598       .  S
C1400      C1723   1.598       .  S
C1401      C1402   1.401       .  A
C1401      C1406   1.395       .  A
C1402      C1403   1.414       .  A
C1402      C1407   1.450       .  S
C1403      C1404   1.439       .  A
C1403      C1410   1.446       .  S
C1404      C1405   1.451       .  A
C1405      C1406   1.416       .  A
C1405      C1408   1.447       .  S
C1406      C1409   1.456       .  S
C1408      N1413   1.157       .  T
C1409      N1411   1.157       .  T
C1410      N1412   1.158       .  T
C1415      C1416   1.454       .  A
C1415      C1420   1.431       .  A
C1416      C1417   1.416       .  A
C1416      C1421   1.453       .  S
C1417      C1418   1.403       .  A
C1417      C1424   1.455       .  S
C1418      C1419   1.432       .  A
C1419      C1420   1.420       .  A
C1419      C1422   1.458       .  S
C1420      C1423   1.449       .  S
C1421      N1428   1.158       .  T
C1422      N1427   1.158       .  T
C1423      N1425   1.158       .  T
C1424      N3162   1.157       .  T
N1426      C3160   1.157   1_455  T
C1429      C1430   1.400       .  A
C1429      C1434   1.395       .  A
C1430      C1431   1.413       .  A
C1430      C1435   1.458       .  S
C1431      C1432   1.444       .  A
C1431      C1438   1.442       .  S
C1432      C1433   1.453       .  A
C1433      C1434   1.419       .  A
C1433      C1436   1.451       .  S
C1434      C1437   1.453       .  S
C1435      N1442   1.157   1_455  T
C1436      N1441   1.157       .  T
C1438      N1440   1.154       .  T
C1443      C1444   1.442       .  A
C1443      C1448   1.428       .  A
C1444      C1445   1.418       .  A
C1444      C1449   1.448       .  S
C1445      C1446   1.406       .  A
C1445      C1452   1.455       .  S
C1446      C1447   1.413       .  A
C1447      C1448   1.414       .  A
C1447      C1450   1.450       .  S
C1448      C1451   1.451       .  S
C1449      N1456   1.158       .  T
C1451      N1453   1.158       .  T
C1452      N1454   1.157       .  T
C1457      C1458   1.411       .  A
C1457      C1462   1.399       .  A
C1458      C1459   1.421       .  A
C1458      C1463   1.453       .  S
C1459      C1460   1.445       .  A
C1459      C1466   1.449       .  S
C1460      C1461   1.455       .  A
C1461      C1462   1.418       .  A
C1461      C1464   1.452       .  S
C1462      C1465   1.454       .  S
C1463      N1470   1.156       .  T
C1464      N1469   1.157       .  T
C1466      N1468   1.158       .  T
C1471      C1472   1.434       .  A
C1471      C1476   1.444       .  A
C1472      C1473   1.418       .  A
C1472      C1477   1.451       .  S
C1473      C1474   1.420       .  A
C1473      C1480   1.453       .  S
C1474      C1475   1.411       .  A
C1475      C1476   1.418       .  A
C1475      C1478   1.455       .  S
C1476      C1479   1.450       .  S
C1477      N1484   1.158       .  T
C1479      N1481   1.158       .  T
C1480      N3218   1.157       .  T
N1482      C3216   1.157   1_455  T
C1485      C1486   1.409       .  A
C1485      C1490   1.390       .  A
C1486      C1487   1.423       .  A
C1486      C1491   1.453       .  S
C1487      C1488   1.438       .  A
C1487      C1494   1.445       .  S
C1488      C1489   1.449       .  A
C1489      C1490   1.400       .  A
C1489      C1492   1.451       .  S
C1490      C1493   1.456       .  S
C1491      N1498   1.157       .  T
C1492      N1497   1.158       .  T
C1493      N1495   1.157       .  T
C1494      N1496   1.157       .  T
C1499      C1500   1.396       .  A
C1499      C1504   1.428       .  A
C1500      C1501   1.409       .  A
C1500      C1505   1.452       .  S
C1501      C1502   1.450       .  A
C1501      C1508   1.449       .  S
C1502      C1503   1.438       .  A
C1503      C1504   1.426       .  A
C1503      C1506   1.456       .  S
C1504      C1507   1.454       .  S
C1505      N1512   1.157       .  T
C1506      N1511   1.158       .  T
C1507      N1509   1.157       .  T
C1508      N1510   1.158       .  T
C1513      C1514   1.438       .  A
C1513      C1518   1.455       .  A
C1514      C1515   1.403       .  A
C1514      C1519   1.453       .  S
C1515      C1516   1.416       .  A
C1515      C1522   1.452       .  S
C1516      C1517   1.404       .  A
C1517      C1518   1.427       .  A
C1517      C1520   1.452       .  S
C1518      C1521   1.451       .  S
C1519      N1526   1.159       .  T
C1520      N1525   1.157       .  T
C1521      N1523   1.158       .  T
C1522      N1524   1.157       .  T
C1527      C1528   1.458       .  A
C1527      C1532   1.435       .  A
C1528      C1529   1.404       .  A
C1528      C1533   1.454       .  S
C1529      C1530   1.386       .  A
C1529      C1536   1.457       .  S
C1530      C1531   1.410       .  A
C1531      C1532   1.420       .  A
C1531      C1534   1.455       .  S
C1532      C1535   1.447       .  S
C1533      N1540   1.158       .  T
C1534      N1539   1.157       .  T
C1535      N1537   1.157       .  T
C1536      N1538   1.157       .  T
C1541      C1542   1.435       .  A
C1541      C1546   1.451       .  A
C1542      C1543   1.426       .  A
C1542      C1547   1.447       .  S
C1543      C1544   1.427       .  A
C1543      C1550   1.455       .  S
C1544      C1545   1.398       .  A
C1545      C1546   1.414       .  A
C1545      C1548   1.452       .  S
C1546      C1549   1.448       .  S
C1547      N1554   1.158       .  T
C1549      N1551   1.158       .  T
C1550      N1552   1.157       .  T
C1555      C1556   1.395       .  A
C1555      C1560   1.401       .  A
C1556      C1557   1.414       .  A
C1556      C1561   1.453       .  S
C1557      C1558   1.457       .  A
C1557      C1564   1.449       .  S
C1558      C1559   1.440       .  A
C1559      C1560   1.397       .  A
C1559      C1562   1.449       .  S
C1560      C1563   1.452       .  S
C1562      N1567   1.158       .  T
C1563      N1565   1.158       .  T
C1564      N1566   1.158       .  T
C1569      C1570   1.408       .  A
C1569      C1574   1.410       .  A
C1570      C1571   1.423       .  A
C1570      C1575   1.452       .  S
C1571      C1572   1.436       .  A
C1571      C1578   1.450       .  S
C1572      C1573   1.425       .  A
C1573      C1574   1.420       .  A
C1573      C1576   1.448       .  S
C1574      C1577   1.451       .  S
C1575      N1582   1.157       .  T
C1576      N1581   1.158       .  T
C1577      N1579   1.157       .  T
C1578      N1580   1.158       .  T
C1583      C1584   1.410       .  A
C1583      C1588   1.415       .  A
C1584      C1585   1.415       .  A
C1584      C1589   1.455       .  S
C1585      C1586   1.440       .  A
C1585      C1592   1.451       .  S
C1586      C1587   1.436       .  A
C1587      C1588   1.416       .  A
C1587      C1590   1.450       .  S
C1588      C1591   1.453       .  S
C1589      N1596   1.158       .  T
C1590      N1595   1.158       .  T
C1591      N1593   1.157       .  T
C1592      N1594   1.157       .  T
C1597      C1598   1.396       .  A
C1597      C1602   1.406       .  A
C1598      C1599   1.426       .  A
C1598      C1603   1.452       .  S
C1599      C1600   1.455       .  A
C1599      C1606   1.450       .  S
C1600      C1601   1.448       .  A
C1601      C1602   1.418       .  A
C1601      C1604   1.446       .  S
C1602      C1605   1.457       .  S
C1603      N1610   1.157       .  T
C1604      N1609   1.157       .  T
C1605      N1607   1.156       .  T
C1606      N1608   1.157       .  T
C1611      C1612   1.410       .  A
C1611      C1616   1.403       .  A
C1612      C1613   1.420       .  A
C1612      C1617   1.454       .  S
C1613      C1614   1.444       .  A
C1613      C1620   1.450       .  S
C1614      C1615   1.449       .  A
C1615      C1616   1.416       .  A
C1615      C1618   1.452       .  S
C1616      C1619   1.455       .  S
C1617      N1624   1.157       .  T
C1618      N1623   1.157       .  T
C1619      N1621   1.157       .  T
C1620      N1622   1.158       .  T
C1625      C1626   1.418       .  A
C1625      C1630   1.398       .  A
C1626      C1627   1.409       .  A
C1626      C1631   1.451       .  S
C1627      C1628   1.421       .  A
C1627      C1634   1.447       .  S
C1628      C1629   1.465       .  A
C1629      C1630   1.426       .  A
C1629      C1632   1.454       .  S
C1630      C1633   1.455       .  S
C1631      N3374   1.155       .  T
C1632      N1637   1.158       .  T
C1633      N1635   1.158       .  T
C1634      N1636   1.157       .  T
N1638      C3367   1.155       .  T
C1639      C1640   1.440       .  A
C1639      C1644   1.449       .  A
C1640      C1641   1.420       .  A
C1640      C1645   1.448       .  S
C1641      C1642   1.414       .  A
C1641      C1648   1.456       .  S
C1642      C1643   1.402       .  A
C1643      C1644   1.412       .  A
C1643      C1646   1.458       .  S
C1644      C1647   1.450       .  S
C1645      N1652   1.158       .  T
C1646      N1651   1.157       .  T
C1647      N1649   1.157       .  T
C1648      N1650   1.157       .  T
C1653      C1654   1.399       .  A
C1653      C1658   1.404       .  A
C1654      C1655   1.416       .  A
C1654      C1659   1.452       .  S
C1655      C1656   1.444       .  A
C1655      C1662   1.451       .  S
C1656      C1657   1.445       .  A
C1657      C1658   1.416       .  A
C1657      C1660   1.453       .  S
C1658      C1661   1.456       .  S
C1659      N1666   1.157       .  T
C1660      N1665   1.158       .  T
C1662      N1664   1.157       .  T
C1667      C1668   1.403       .  A
C1667      C1672   1.420       .  A
C1668      C1669   1.412       .  A
C1668      C1673   1.457       .  S
C1669      C1670   1.449       .  A
C1669      C1676   1.450       .  S
C1670      C1671   1.436       .  A
C1671      C1672   1.422       .  A
C1671      C1674   1.449       .  S
C1672      C1675   1.453       .  S
C1673      N1680   1.157       .  T
C1674      N1679   1.158       .  T
C1675      N1677   1.157       .  T
C1676      N1678   1.158       .  T
C1681      C1682   1.395       .  A
C1681      C1686   1.408       .  A
C1682      C1683   1.419       .  A
C1682      C1687   1.455       .  S
C1683      C1684   1.458       .  A
C1683      C1690   1.453       .  S
C1684      C1685   1.444       .  A
C1685      C1686   1.422       .  A
C1685      C1688   1.450       .  S
C1686      C1689   1.456       .  S
C1687      N1694   1.157       .  T
C1688      N1693   1.158       .  T
C1689      N1691   1.157       .  T
C1690      N1692   1.158       .  T
C1695      C1696   1.447       .  A
C1695      C1700   1.456       .  A
C1696      C1697   1.420       .  A
C1696      C1701   1.453       .  S
C1697      C1698   1.414       .  A
C1697      C1704   1.458       .  S
C1698      C1699   1.399       .  A
C1699      C1700   1.417       .  A
C1699      C1702   1.456       .  S
C1700      C1703   1.454       .  S
C1701      N1708   1.159       .  T
C1702      N1707   1.157       .  T
C1703      N1705   1.158       .  T
C1704      N1706   1.158       .  T
C1709      C1710   1.414       .  A
C1709      C1714   1.399       .  A
C1710      C1711   1.422       .  A
C1710      C1715   1.447       .  S
C1711      C1712   1.435       .  A
C1711      C1718   1.449       .  S
C1712      C1713   1.448       .  A
C1713      C1714   1.415       .  A
C1713      C1716   1.446       .  S
C1714      C1717   1.457       .  S
C1715      N1722   1.154       .  T
C1716      N1721   1.157       .  T
C1717      N1719   1.157       .  T
C1718      N1720   1.158       .  T
C1723      C1724   1.431       .  A
C1723      C1728   1.454       .  A
C1724      C1725   1.411       .  A
C1724      C1729   1.445       .  S
C1725      C1726   1.404       .  A
C1725      C1732   1.455       .  S
C1726      C1727   1.388       .  A
C1727      C1728   1.406       .  A
C1727      C1730   1.457       .  S
C1728      C1731   1.450       .  S
C1729      N1736   1.157       .  T
C1731      N1733   1.157       .  T
C1732      N1734   1.157       .  T
Zn1737     O1742   1.958       .  S
Zn1737     O2614   1.979       .  S
Zn1737     O1753   1.926       .  S
Zn1737     O2609   1.907       .  S
Zn1738     O2611   1.989       .  S
Zn1738     O1745   1.993       .  S
Zn1738     O1749   1.948       .  S
Zn1738     O2609   1.931       .  S
Zn1739     O1744   2.037       .  S
Zn1739     O1747   2.015       .  S
Zn1739     O1750   1.935       .  S
Zn1739     O1741   1.922       .  S
Zn1740     O1748   2.117       .  S
Zn1740     O1751   2.100       .  S
Zn1740     O1752   2.101       .  S
Zn1740     O2609   1.983       .  S
O1741     Zn2605   1.907   1_545  S
O1741     Zn2606   1.931   1_545  S
O1741     Zn2608   1.983   1_545  S
O1742      C1754   1.263       .  A
O1743     Zn2606   1.989   1_545  S
O1743      C1755   1.269       .  A
O1744      C1756   1.277       .  A
O1745      C1754   1.271       .  A
O1746     Zn2605   1.979   1_545  S
O1746      C1756   1.268       .  A
O1747      C1755   1.275       .  A
O1748      C2625   1.286       .  A
O1749      C1758   1.264       .  A
O1750      C1757   1.263       .  A
O1751      C1758   1.286       .  A
O1752      C1759   1.284       .  A
O1753      C1759   1.262       .  A
C1754      C2160   1.465       .  S
C1755      C2101   1.501       .  S
C1756      C2132   1.503       .  S
C1757      O2616   1.286       .  A
C1757      C2115   1.490       .  S
C1758      C2143   1.494       .  S
C1759      C2087   1.483       .  S
Zn1760     O1765   2.001       .  S
Zn1760     O1776   1.894       .  S
Zn1760     O1764   1.921   1_655  S
Zn1761     O1768   1.985       .  S
Zn1761     O1772   1.905       .  S
Zn1761     O1764   1.911   1_655  S
Zn1762     O1767   2.025       .  S
Zn1762     O1770   2.022       .  S
Zn1762     O1773   1.968       .  S
Zn1763     O1771   2.140   1_655  S
Zn1763     O1774   2.143       .  S
Zn1763     O1775   2.135       .  S
Zn1763     O1764   2.023   1_655  S
O1765      C1777   1.269       .  A
O1766      C1778   1.272       .  A
O1767      C1779   1.274       .  A
O1768      C1777   1.269       .  A
O1769      C1779   1.268       .  A
O1770      C1778   1.275       .  A
O1772      C1781   1.259       .  A
O1773      C1780   1.267       .  A
O1774      C1781   1.287       .  A
O1775      C1782   1.287       .  A
O1776      C1782   1.257       .  A
C1777      C2076   1.493       .  S
C1778      C2045   1.502       .  S
C1779      C2017   1.499       .  S
C1780      C2003   1.501       .  S
C1781      C2031   1.498       .  S
C1782      C2059   1.509       .  S
Zn1783     O1788   1.990       .  S
Zn1783     O2226   1.970       .  S
Zn1783     O1799   1.915       .  S
Zn1783     O1787   1.885       .  S
Zn1784     O2223   2.010       .  S
Zn1784     O1791   1.985       .  S
Zn1784     O1795   1.945       .  S
Zn1784     O1787   1.900       .  S
Zn1785     O1790   2.013       .  S
Zn1785     O1793   2.000       .  S
Zn1785     O1796   1.934       .  S
Zn1785     O2221   1.905       .  S
Zn1786     O1794   2.136       .  S
Zn1786     O1797   2.148       .  S
Zn1786     O1798   2.144       .  S
Zn1786     O1787   1.962       .  S
O1787     Zn2219   1.905       .  S
O1788      C1800   1.271       .  A
O1789     Zn2218   2.010   1_554  S
O1789      C1801   1.271       .  A
O1790      C1802   1.272       .  A
O1791      C1800   1.270       .  A
O1792     Zn2217   1.970   1_554  S
O1792      C1802   1.268       .  A
O1793      C1801   1.275       .  A
O1794      C2237   1.291       .  A
O1795      C1804   1.258       .  A
O1796      C1803   1.262       .  A
O1797      C1804   1.291       .  A
O1798      C1805   1.290       .  A
O1799      C1805   1.260       .  A
C1800      C1989   1.478       .  S
C1801      C1919   1.475       .  S
C1802      C1964   1.473       .  S
C1803      O2228   1.291       .  A
C1803      C1978   1.513       .  S
C1804      C1933   1.510       .  S
C1805      C1950   1.505       .  S
Zn1806     O2679   2.005   1_556  S
Zn1806     O2249   2.023   1_565  S
Zn1806     O1822   1.903   1_566  S
Zn1807     O2246   2.024       .  S
Zn1807     O1818   1.945   1_556  S
Zn1807     O2678   1.929       .  S
Zn1808     O2684   2.021       .  S
Zn1808     O1819   1.941   1_565  S
Zn1808     O2244   1.918       .  S
Zn1809     O1817   2.084   1_554  S
Zn1809     O1820   2.075   1_545  S
Zn1809     O1821   2.111       .  S
Zn1809     O1810   2.011   1_544  S
O1810     Zn2675   1.929       .  S
O1810     Zn2242   1.918       .  S
O1811     Zn2674   2.005   1_554  S
O1811      C1823   1.273       .  A
O1812     Zn2241   2.024       .  S
O1812      C1824   1.275       .  A
O1813      C1825   1.277       .  A
O1814      C1823   1.273       .  A
O1815     Zn2240   2.023   1_545  S
O1815      C1825   1.275       .  A
O1816     Zn2676   2.021       .  S
O1816      C1824   1.276       .  A
O1817      C2260   1.281       .  A
O1818      C1827   1.265       .  A
O1819      C1826   1.265       .  A
O1820      C2695   1.281       .  A
O1822      C1828   1.254       .  A
C1823      C1908   1.508       .  S
C1824      C1880   1.504       .  S
C1825      C1891   1.503       .  S
C1826      O2251   1.281       .  A
C1826      C1863   1.480       .  S
C1827      O2688   1.281       .  A
C1827      C1835   1.481       .  S
C1828      C1852   1.520       .  S
C1829      C1905   1.603       .  S
C1829      C1975   1.626       .  S
C1829      C2062   1.613       .  S
C1829      C2146   1.596       .  S
C1830      C1894   1.615       .  S
C1830      C1947   1.612       .  S
C1830      C2034   1.619       .  S
C1830      C2118   1.615       .  S
C1831      C1877   1.606       .  S
C1831      C1936   1.629       .  S
C1831      C2006   1.625       .  S
C1831      C2090   1.589       .  S
C1832      C1866   1.607       .  S
C1832      C1992   1.600       .  S
C1832      C2048   1.606       .  S
C1832      C2129   1.614       .  S
C1833      C1849   1.621       .  S
C1833      C1961   1.612       .  S
C1833      C2073   1.596       .  S
C1833      C2104   1.599       .  S
C1834      C1838   1.599       .  S
C1834      C1922   1.612       .  S
C1834      C2020   1.598       .  S
C1834      C2157   1.598       .  S
C1835      C1836   1.401       .  A
C1835      C1840   1.395       .  A
C1836      C1837   1.414       .  A
C1836      C1841   1.450       .  S
C1837      C1838   1.439       .  A
C1837      C1844   1.446       .  S
C1838      C1839   1.451       .  A
C1839      C1840   1.416       .  A
C1839      C1842   1.447       .  S
C1840      C1843   1.456       .  S
C1841      N2282   1.156   1_554  T
C1842      N1847   1.157       .  T
C1843      N1845   1.157       .  T
C1844      N1846   1.158       .  T
N1848      C2275   1.156       .  T
C1849      C1850   1.454       .  A
C1849      C1854   1.431       .  A
C1850      C1851   1.416       .  A
C1850      C1855   1.453       .  S
C1851      C1852   1.403       .  A
C1851      C1858   1.455       .  S
C1852      C1853   1.432       .  A
C1853      C1854   1.420       .  A
C1853      C1856   1.458       .  S
C1854      C1857   1.449       .  S
C1855      N1862   1.158       .  T
C1856      N1861   1.158       .  T
C1857      N1859   1.158       .  T
C1863      C1864   1.400       .  A
C1863      C1868   1.395       .  A
C1864      C1865   1.413       .  A
C1864      C1869   1.458       .  S
C1865      C1866   1.444       .  A
C1865      C1872   1.442       .  S
C1866      C1867   1.453       .  A
C1867      C1868   1.419       .  A
C1867      C1870   1.451       .  S
C1868      C1871   1.453       .  S
C1869      N1876   1.157       .  T
C1870      N1875   1.157       .  T
C1871      N2307   1.157       .  T
C1872      N1874   1.154       .  T
N1873      C2305   1.157       .  T
C1877      C1878   1.442       .  A
C1877      C1882   1.428       .  A
C1878      C1879   1.418       .  A
C1878      C1883   1.448       .  S
C1879      C1880   1.406       .  A
C1879      C1886   1.455       .  S
C1880      C1881   1.413       .  A
C1881      C1882   1.414       .  A
C1881      C1884   1.450       .  S
C1882      C1885   1.451       .  S
C1883      N1890   1.158       .  T
C1884      N2323   1.157       .  T
C1885      N1887   1.158       .  T
C1886      N1888   1.157       .  T
N1889      C2318   1.157       .  T
C1891      C1892   1.411       .  A
C1891      C1896   1.399       .  A
C1892      C1893   1.421       .  A
C1892      C1897   1.453       .  S
C1893      C1894   1.445       .  A
C1893      C1900   1.449       .  S
C1894      C1895   1.455       .  A
C1895      C1896   1.418       .  A
C1895      C1898   1.452       .  S
C1896      C1899   1.454       .  S
C1897      N1904   1.156       .  T
C1898      N1903   1.157       .  T
C1899      N2769   1.157       .  T
C1900      N1902   1.158       .  T
N1901      C2767   1.157       .  T
C1905      C1906   1.434       .  A
C1905      C1910   1.444       .  A
C1906      C1907   1.418       .  A
C1906      C1911   1.451       .  S
C1907      C1908   1.420       .  A
C1907      C1914   1.453       .  S
C1908      C1909   1.411       .  A
C1909      C1910   1.418       .  A
C1909      C1912   1.455       .  S
C1910      C1913   1.450       .  S
C1911      N1918   1.158       .  T
C1912      N2351   1.157       .  T
C1913      N1915   1.158       .  T
N1917      C2346   1.157       .  T
C1919      C1920   1.409       .  A
C1919      C1924   1.390       .  A
C1920      C1921   1.423       .  A
C1920      C1925   1.453       .  S
C1921      C1922   1.438       .  A
C1921      C1928   1.445       .  S
C1922      C1923   1.449       .  A
C1923      C1924   1.400       .  A
C1923      C1926   1.451       .  S
C1924      C1927   1.456       .  S
C1925      N1932   1.157       .  T
C1926      N1931   1.158       .  T
C1927      N1929   1.157       .  T
C1928      N1930   1.157       .  T
C1933      C1934   1.396       .  A
C1933      C1938   1.428       .  A
C1934      C1935   1.409       .  A
C1934      C1939   1.452       .  S
C1935      C1936   1.450       .  A
C1935      C1942   1.449       .  S
C1936      C1937   1.438       .  A
C1937      C1938   1.426       .  A
C1937      C1940   1.456       .  S
C1938      C1941   1.454       .  S
C1939      N1946   1.157       .  T
C1940      N1945   1.158       .  T
C1941      N1943   1.157       .  T
C1942      N1944   1.158       .  T
C1947      C1948   1.438       .  A
C1947      C1952   1.455       .  A
C1948      C1949   1.403       .  A
C1948      C1953   1.453       .  S
C1949      C1950   1.416       .  A
C1949      C1956   1.452       .  S
C1950      C1951   1.404       .  A
C1951      C1952   1.427       .  A
C1951      C1954   1.452       .  S
C1952      C1955   1.451       .  S
C1953      N1960   1.159       .  T
C1954      N1959   1.157       .  T
C1955      N1957   1.158       .  T
C1956      N1958   1.157       .  T
C1961      C1962   1.458       .  A
C1961      C1966   1.435       .  A
C1962      C1963   1.404       .  A
C1962      C1967   1.454       .  S
C1963      C1964   1.386       .  A
C1963      C1970   1.457       .  S
C1964      C1965   1.410       .  A
C1965      C1966   1.420       .  A
C1965      C1968   1.455       .  S
C1966      C1969   1.447       .  S
C1967      N1974   1.158       .  T
C1968      N1973   1.157       .  T
C1969      N1971   1.157       .  T
C1970      N1972   1.157       .  T
C1975      C1976   1.435       .  A
C1975      C1980   1.451       .  A
C1976      C1977   1.426       .  A
C1976      C1981   1.447       .  S
C1977      C1978   1.427       .  A
C1977      C1984   1.455       .  S
C1978      C1979   1.398       .  A
C1979      C1980   1.414       .  A
C1979      C1982   1.452       .  S
C1980      C1983   1.448       .  S
C1981      N1988   1.158       .  T
C1982      N2421   1.157   1_554  T
C1983      N1985   1.158       .  T
C1984      N1986   1.157       .  T
N1987      C2416   1.157       .  T
C1989      C1990   1.395       .  A
C1989      C1994   1.401       .  A
C1990      C1991   1.414       .  A
C1990      C1995   1.453       .  S
C1991      C1992   1.457       .  A
C1991      C1998   1.449       .  S
C1992      C1993   1.440       .  A
C1993      C1994   1.397       .  A
C1993      C1996   1.449       .  S
C1994      C1997   1.452       .  S
C1995      N2436   1.157       .  T
C1996      N2001   1.158       .  T
C1997      N1999   1.158       .  T
C1998      N2000   1.158       .  T
N2002      C2429   1.157   1_554  T
C2003      C2004   1.408       .  A
C2003      C2008   1.410       .  A
C2004      C2005   1.423       .  A
C2004      C2009   1.452       .  S
C2005      C2006   1.436       .  A
C2005      C2012   1.450       .  S
C2006      C2007   1.425       .  A
C2007      C2008   1.420       .  A
C2007      C2010   1.448       .  S
C2008      C2011   1.451       .  S
C2009      N2016   1.157       .  T
C2010      N2015   1.158       .  T
C2011      N2013   1.157       .  T
C2012      N2014   1.158       .  T
C2017      C2018   1.410       .  A
C2017      C2022   1.415       .  A
C2018      C2019   1.415       .  A
C2018      C2023   1.455       .  S
C2019      C2020   1.440       .  A
C2019      C2026   1.451       .  S
C2020      C2021   1.436       .  A
C2021      C2022   1.416       .  A
C2021      C2024   1.450       .  S
C2022      C2025   1.453       .  S
C2023      N2030   1.158       .  T
C2024      N2029   1.158       .  T
C2025      N2027   1.157       .  T
C2026      N2028   1.157       .  T
C2031      C2032   1.396       .  A
C2031      C2036   1.406       .  A
C2032      C2033   1.426       .  A
C2032      C2037   1.452       .  S
C2033      C2034   1.455       .  A
C2033      C2040   1.450       .  S
C2034      C2035   1.448       .  A
C2035      C2036   1.418       .  A
C2035      C2038   1.446       .  S
C2036      C2039   1.457       .  S
C2037      N2044   1.157       .  T
C2038      N2043   1.157       .  T
C2039      N2041   1.156   1_655  T
C2040      N2042   1.157       .  T
C2045      C2046   1.410       .  A
C2045      C2050   1.403       .  A
C2046      C2047   1.420       .  A
C2046      C2051   1.454       .  S
C2047      C2048   1.444       .  A
C2047      C2054   1.450       .  S
C2048      C2049   1.449       .  A
C2049      C2050   1.416       .  A
C2049      C2052   1.452       .  S
C2050      C2053   1.455       .  S
C2051      N2058   1.157       .  T
C2052      N2057   1.157       .  T
C2053      N2055   1.157       .  T
C2054      N2056   1.158       .  T
C2059      C2060   1.418       .  A
C2059      C2064   1.398       .  A
C2060      C2061   1.409       .  A
C2060      C2065   1.451       .  S
C2061      C2062   1.421       .  A
C2061      C2068   1.447       .  S
C2062      C2063   1.465       .  A
C2063      C2064   1.426       .  A
C2063      C2066   1.454       .  S
C2064      C2067   1.455       .  S
C2066      N2071   1.158       .  T
C2067      N2069   1.158       .  T
C2068      N2070   1.157       .  T
C2073      C2074   1.440       .  A
C2073      C2078   1.449       .  A
C2074      C2075   1.420       .  A
C2074      C2079   1.448       .  S
C2075      C2076   1.414       .  A
C2075      C2082   1.456       .  S
C2076      C2077   1.402       .  A
C2077      C2078   1.412       .  A
C2077      C2080   1.458       .  S
C2078      C2081   1.450       .  S
C2079      N2086   1.158       .  T
C2080      N2085   1.157       .  T
C2081      N2083   1.157       .  T
C2082      N2084   1.157       .  T
C2087      C2088   1.399       .  A
C2087      C2092   1.404       .  A
C2088      C2089   1.416       .  A
C2088      C2093   1.452       .  S
C2089      C2090   1.444       .  A
C2089      C2096   1.451       .  S
C2090      C2091   1.445       .  A
C2091      C2092   1.416       .  A
C2091      C2094   1.453       .  S
C2092      C2095   1.456       .  S
C2093      N2100   1.157       .  T
C2094      N2099   1.158       .  T
C2095      N2965   1.157       .  T
C2096      N2098   1.157       .  T
N2097      C2963   1.157   1_545  T
C2101      C2102   1.403       .  A
C2101      C2106   1.420       .  A
C2102      C2103   1.412       .  A
C2102      C2107   1.457       .  S
C2103      C2104   1.449       .  A
C2103      C2110   1.450       .  S
C2104      C2105   1.436       .  A
C2105      C2106   1.422       .  A
C2105      C2108   1.449       .  S
C2106      C2109   1.453       .  S
C2107      N2114   1.157       .  T
C2108      N2113   1.158       .  T
C2109      N2111   1.157   1_545  T
C2110      N2112   1.158       .  T
C2115      C2116   1.395       .  A
C2115      C2120   1.408       .  A
C2116      C2117   1.419       .  A
C2116      C2121   1.455       .  S
C2117      C2118   1.458       .  A
C2117      C2124   1.453       .  S
C2118      C2119   1.444       .  A
C2119      C2120   1.422       .  A
C2119      C2122   1.450       .  S
C2120      C2123   1.456       .  S
C2121      N2128   1.157       .  T
C2122      N2127   1.158       .  T
C2123      N2125   1.157       .  T
C2124      N2126   1.158       .  T
C2129      C2130   1.447       .  A
C2129      C2134   1.456       .  A
C2130      C2131   1.420       .  A
C2130      C2135   1.453       .  S
C2131      C2132   1.414       .  A
C2131      C2138   1.458       .  S
C2132      C2133   1.399       .  A
C2133      C2134   1.417       .  A
C2133      C2136   1.456       .  S
C2134      C2137   1.454       .  S
C2135      N2142   1.159       .  T
C2136      N2141   1.157       .  T
C2137      N2139   1.158       .  T
C2138      N2140   1.158   1_545  T
C2143      C2144   1.414       .  A
C2143      C2148   1.399       .  A
C2144      C2145   1.422       .  A
C2144      C2149   1.447       .  S
C2145      C2146   1.435       .  A
C2145      C2152   1.449       .  S
C2146      C2147   1.448       .  A
C2147      C2148   1.415       .  A
C2147      C2150   1.446       .  S
C2148      C2151   1.457       .  S
C2149      N2156   1.154       .  T
C2150      N2155   1.157       .  T
C2151      N2153   1.157       .  T
C2152      N2154   1.158       .  T
C2157      C2158   1.431       .  A
C2157      C2162   1.454       .  A
C2158      C2159   1.411       .  A
C2158      C2163   1.445       .  S
C2159      C2160   1.404       .  A
C2159      C2166   1.455       .  S
C2160      C2161   1.388       .  A
C2161      C2162   1.406       .  A
C2161      C2164   1.457       .  S
C2162      C2165   1.450       .  S
C2163      N2170   1.157       .  T
C2164      N3037   1.157       .  T
C2165      N2167   1.157       .  T
C2166      N2168   1.157       .  T
N2169      C3032   1.157   1_545  T
Zn2171     O2176   1.958       .  S
Zn2171     O3048   1.979       .  S
Zn2171     O2187   1.926       .  S
Zn2171     O3043   1.907       .  S
Zn2172     O3045   1.989       .  S
Zn2172     O2179   1.993       .  S
Zn2172     O2183   1.948       .  S
Zn2172     O3043   1.931       .  S
Zn2173     O2178   2.037       .  S
Zn2173     O2181   2.015       .  S
Zn2173     O2184   1.935       .  S
Zn2173     O2175   1.922       .  S
Zn2174     O2182   2.117       .  S
Zn2174     O2185   2.100       .  S
Zn2174     O2186   2.101       .  S
Zn2174     O3043   1.983       .  S
O2175     Zn3039   1.907   1_545  S
O2175     Zn3040   1.931   1_545  S
O2175     Zn3042   1.983   1_545  S
O2176      C2188   1.263       .  A
O2177     Zn3040   1.989   1_545  S
O2177      C2189   1.269       .  A
O2178      C2190   1.277       .  A
O2179      C2188   1.271       .  A
O2180     Zn3039   1.979   1_545  S
O2180      C2190   1.268       .  A
O2181      C2189   1.275       .  A
O2182      C3059   1.286       .  A
O2183      C2192   1.264       .  A
O2184      C2191   1.263       .  A
O2185      C2192   1.286       .  A
O2186      C2193   1.284       .  A
O2187      C2193   1.262       .  A
C2188      C2594   1.465       .  S
C2189      C2535   1.501       .  S
C2190      C2566   1.503       .  S
C2191      O3050   1.286       .  A
C2191      C2549   1.490       .  S
C2192      C2577   1.494       .  S
C2193      C2521   1.483       .  S
Zn2194     O2199   2.001       .  S
Zn2194     O2210   1.894       .  S
Zn2194     O2198   1.921   1_655  S
Zn2195     O2202   1.985       .  S
Zn2195     O2206   1.905       .  S
Zn2195     O2198   1.911   1_655  S
Zn2196     O2201   2.025       .  S
Zn2196     O2204   2.022       .  S
Zn2196     O2207   1.968       .  S
Zn2197     O2205   2.140   1_655  S
Zn2197     O2208   2.143       .  S
Zn2197     O2209   2.135       .  S
Zn2197     O2198   2.023   1_655  S
O2199      C2211   1.269       .  A
O2200      C2212   1.272       .  A
O2201      C2213   1.274       .  A
O2202      C2211   1.269       .  A
O2203      C2213   1.268       .  A
O2204      C2212   1.275       .  A
O2206      C2215   1.259       .  A
O2207      C2214   1.267       .  A
O2208      C2215   1.287       .  A
O2209      C2216   1.287       .  A
O2210      C2216   1.257       .  A
C2211      C2510   1.493       .  S
C2212      C2479   1.502       .  S
C2213      C2451   1.499       .  S
C2214      C2437   1.501       .  S
C2215      C2465   1.498       .  S
C2216      C2493   1.509       .  S
Zn2217     O2222   1.990       .  S
Zn2217     O2233   1.915       .  S
Zn2217     O2221   1.885   1_556  S
Zn2218     O2225   1.985       .  S
Zn2218     O2229   1.945       .  S
Zn2218     O2221   1.900   1_556  S
Zn2219     O2224   2.013       .  S
Zn2219     O2227   2.000       .  S
Zn2219     O2230   1.934       .  S
Zn2220     O2228   2.136   1_556  S
Zn2220     O2231   2.148       .  S
Zn2220     O2232   2.144       .  S
Zn2220     O2221   1.962   1_556  S
O2222      C2234   1.271       .  A
O2223      C2235   1.271       .  A
O2224      C2236   1.272       .  A
O2225      C2234   1.270       .  A
O2226      C2236   1.268       .  A
O2227      C2235   1.275       .  A
O2229      C2238   1.258       .  A
O2230      C2237   1.262       .  A
O2231      C2238   1.291       .  A
O2232      C2239   1.290       .  A
O2233      C2239   1.260       .  A
C2234      C2423   1.478       .  S
C2235      C2353   1.475       .  S
C2236      C2398   1.473       .  S
C2237      C2412   1.513       .  S
C2238      C2367   1.510       .  S
C2239      C2384   1.505       .  S
Zn2240     O3113   2.005       .  S
Zn2240     O2256   1.903   1_565  S
Zn2241     O2252   1.945       .  S
Zn2241     O3112   1.929       .  S
Zn2242     O3118   2.021       .  S
Zn2242     O2253   1.941   1_565  S
Zn2243     O2251   2.084       .  S
Zn2243     O2254   2.075   1_545  S
Zn2243     O2255   2.111       .  S
Zn2243     O2244   2.011   1_545  S
O2244     Zn3109   1.929       .  S
O2245     Zn3108   2.005       .  S
O2245      C2257   1.273       .  A
O2246      C2258   1.275       .  A
O2247      C2259   1.277       .  A
O2248      C2257   1.273       .  A
O2249      C2259   1.275       .  A
O2250     Zn3110   2.021       .  S
O2250      C2258   1.276       .  A
O2252      C2261   1.265       .  A
O2253      C2260   1.265       .  A
O2254      C3129   1.281       .  A
O2256      C2262   1.254       .  A
C2257      C2342   1.508       .  S
C2258      C2314   1.504       .  S
C2259      C2325   1.503       .  S
C2260      C2297   1.480       .  S
C2261      O3122   1.281       .  A
C2261      C2269   1.481       .  S
C2262      C2286   1.520       .  S
C2263      C2339   1.603       .  S
C2263      C2409   1.626       .  S
C2263      C2496   1.613       .  S
C2263      C2580   1.596       .  S
C2264      C2328   1.615       .  S
C2264      C2381   1.612       .  S
C2264      C2468   1.619       .  S
C2264      C2552   1.615       .  S
C2265      C2311   1.606       .  S
C2265      C2370   1.629       .  S
C2265      C2440   1.625       .  S
C2265      C2524   1.589       .  S
C2266      C2300   1.607       .  S
C2266      C2426   1.600       .  S
C2266      C2482   1.606       .  S
C2266      C2563   1.614       .  S
C2267      C2283   1.621       .  S
C2267      C2395   1.612       .  S
C2267      C2507   1.596       .  S
C2267      C2538   1.599       .  S
C2268      C2272   1.599       .  S
C2268      C2356   1.612       .  S
C2268      C2454   1.598       .  S
C2268      C2591   1.598       .  S
C2269      C2270   1.401       .  A
C2269      C2274   1.395       .  A
C2270      C2271   1.414       .  A
C2270      C2275   1.450       .  S
C2271      C2272   1.439       .  A
C2271      C2278   1.446       .  S
C2272      C2273   1.451       .  A
C2273      C2274   1.416       .  A
C2273      C2276   1.447       .  S
C2274      C2277   1.456       .  S
C2276      N2281   1.157       .  T
C2277      N2279   1.157       .  T
C2278      N2280   1.158       .  T
C2283      C2284   1.454       .  A
C2283      C2288   1.431       .  A
C2284      C2285   1.416       .  A
C2284      C2289   1.453       .  S
C2285      C2286   1.403       .  A
C2285      C2292   1.455       .  S
C2286      C2287   1.432       .  A
C2287      C2288   1.420       .  A
C2287      C2290   1.458       .  S
C2288      C2291   1.449       .  S
C2289      N2296   1.158       .  T
C2290      N2295   1.158       .  T
C2291      N2293   1.158       .  T
C2297      C2298   1.400       .  A
C2297      C2302   1.395       .  A
C2298      C2299   1.413       .  A
C2298      C2303   1.458       .  S
C2299      C2300   1.444       .  A
C2299      C2306   1.442       .  S
C2300      C2301   1.453       .  A
C2301      C2302   1.419       .  A
C2301      C2304   1.451       .  S
C2302      C2305   1.453       .  S
C2303      N2310   1.157       .  T
C2304      N2309   1.157       .  T
C2306      N2308   1.154       .  T
C2311      C2312   1.442       .  A
C2311      C2316   1.428       .  A
C2312      C2313   1.418       .  A
C2312      C2317   1.448       .  S
C2313      C2314   1.406       .  A
C2313      C2320   1.455       .  S
C2314      C2315   1.413       .  A
C2315      C2316   1.414       .  A
C2315      C2318   1.450       .  S
C2316      C2319   1.451       .  S
C2317      N2324   1.158       .  T
C2319      N2321   1.158       .  T
C2320      N2322   1.157       .  T
C2325      C2326   1.411       .  A
C2325      C2330   1.399       .  A
C2326      C2327   1.421       .  A
C2326      C2331   1.453       .  S
C2327      C2328   1.445       .  A
C2327      C2334   1.449       .  S
C2328      C2329   1.455       .  A
C2329      C2330   1.418       .  A
C2329      C2332   1.452       .  S
C2330      C2333   1.454       .  S
C2331      N2338   1.156       .  T
C2332      N2337   1.157       .  T
C2333      N3203   1.157       .  T
C2334      N2336   1.158       .  T
N2335      C3201   1.157       .  T
C2339      C2340   1.434       .  A
C2339      C2344   1.444       .  A
C2340      C2341   1.418       .  A
C2340      C2345   1.451       .  S
C2341      C2342   1.420       .  A
C2341      C2348   1.453       .  S
C2342      C2343   1.411       .  A
C2343      C2344   1.418       .  A
C2343      C2346   1.455       .  S
C2344      C2347   1.450       .  S
C2345      N2352   1.158       .  T
C2347      N2349   1.158       .  T
C2353      C2354   1.409       .  A
C2353      C2358   1.390       .  A
C2354      C2355   1.423       .  A
C2354      C2359   1.453       .  S
C2355      C2356   1.438       .  A
C2355      C2362   1.445       .  S
C2356      C2357   1.449       .  A
C2357      C2358   1.400       .  A
C2357      C2360   1.451       .  S
C2358      C2361   1.456       .  S
C2359      N2366   1.157       .  T
C2360      N2365   1.158       .  T
C2361      N2363   1.157       .  T
C2362      N2364   1.157       .  T
C2367      C2368   1.396       .  A
C2367      C2372   1.428       .  A
C2368      C2369   1.409       .  A
C2368      C2373   1.452       .  S
C2369      C2370   1.450       .  A
C2369      C2376   1.449       .  S
C2370      C2371   1.438       .  A
C2371      C2372   1.426       .  A
C2371      C2374   1.456       .  S
C2372      C2375   1.454       .  S
C2373      N2380   1.157       .  T
C2374      N2379   1.158       .  T
C2375      N2377   1.157       .  T
C2376      N2378   1.158       .  T
C2381      C2382   1.438       .  A
C2381      C2386   1.455       .  A
C2382      C2383   1.403       .  A
C2382      C2387   1.453       .  S
C2383      C2384   1.416       .  A
C2383      C2390   1.452       .  S
C2384      C2385   1.404       .  A
C2385      C2386   1.427       .  A
C2385      C2388   1.452       .  S
C2386      C2389   1.451       .  S
C2387      N2394   1.159       .  T
C2388      N2393   1.157       .  T
C2389      N2391   1.158       .  T
C2390      N2392   1.157       .  T
C2395      C2396   1.458       .  A
C2395      C2400   1.435       .  A
C2396      C2397   1.404       .  A
C2396      C2401   1.454       .  S
C2397      C2398   1.386       .  A
C2397      C2404   1.457       .  S
C2398      C2399   1.410       .  A
C2399      C2400   1.420       .  A
C2399      C2402   1.455       .  S
C2400      C2403   1.447       .  S
C2401      N2408   1.158       .  T
C2402      N2407   1.157       .  T
C2403      N2405   1.157       .  T
C2404      N2406   1.157       .  T
C2409      C2410   1.435       .  A
C2409      C2414   1.451       .  A
C2410      C2411   1.426       .  A
C2410      C2415   1.447       .  S
C2411      C2412   1.427       .  A
C2411      C2418   1.455       .  S
C2412      C2413   1.398       .  A
C2413      C2414   1.414       .  A
C2413      C2416   1.452       .  S
C2414      C2417   1.448       .  S
C2415      N2422   1.158       .  T
C2417      N2419   1.158       .  T
C2418      N2420   1.157       .  T
C2423      C2424   1.395       .  A
C2423      C2428   1.401       .  A
C2424      C2425   1.414       .  A
C2424      C2429   1.453       .  S
C2425      C2426   1.457       .  A
C2425      C2432   1.449       .  S
C2426      C2427   1.440       .  A
C2427      C2428   1.397       .  A
C2427      C2430   1.449       .  S
C2428      C2431   1.452       .  S
C2430      N2435   1.158       .  T
C2431      N2433   1.158       .  T
C2432      N2434   1.158       .  T
C2437      C2438   1.408       .  A
C2437      C2442   1.410       .  A
C2438      C2439   1.423       .  A
C2438      C2443   1.452       .  S
C2439      C2440   1.436       .  A
C2439      C2446   1.450       .  S
C2440      C2441   1.425       .  A
C2441      C2442   1.420       .  A
C2441      C2444   1.448       .  S
C2442      C2445   1.451       .  S
C2443      N2450   1.157       .  T
C2444      N2449   1.158       .  T
C2445      N2447   1.157       .  T
C2446      N2448   1.158       .  T
C2451      C2452   1.410       .  A
C2451      C2456   1.415       .  A
C2452      C2453   1.415       .  A
C2452      C2457   1.455       .  S
C2453      C2454   1.440       .  A
C2453      C2460   1.451       .  S
C2454      C2455   1.436       .  A
C2455      C2456   1.416       .  A
C2455      C2458   1.450       .  S
C2456      C2459   1.453       .  S
C2457      N2464   1.158       .  T
C2458      N2463   1.158       .  T
C2459      N2461   1.157       .  T
C2460      N2462   1.157       .  T
C2465      C2466   1.396       .  A
C2465      C2470   1.406       .  A
C2466      C2467   1.426       .  A
C2466      C2471   1.452       .  S
C2467      C2468   1.455       .  A
C2467      C2474   1.450       .  S
C2468      C2469   1.448       .  A
C2469      C2470   1.418       .  A
C2469      C2472   1.446       .  S
C2470      C2473   1.457       .  S
C2471      N2478   1.157       .  T
C2472      N2477   1.157       .  T
C2473      N2475   1.156   1_655  T
C2474      N2476   1.157       .  T
C2479      C2480   1.410       .  A
C2479      C2484   1.403       .  A
C2480      C2481   1.420       .  A
C2480      C2485   1.454       .  S
C2481      C2482   1.444       .  A
C2481      C2488   1.450       .  S
C2482      C2483   1.449       .  A
C2483      C2484   1.416       .  A
C2483      C2486   1.452       .  S
C2484      C2487   1.455       .  S
C2485      N2492   1.157       .  T
C2486      N2491   1.157       .  T
C2487      N2489   1.157       .  T
C2488      N2490   1.158       .  T
C2493      C2494   1.418       .  A
C2493      C2498   1.398       .  A
C2494      C2495   1.409       .  A
C2494      C2499   1.451       .  S
C2495      C2496   1.421       .  A
C2495      C2502   1.447       .  S
C2496      C2497   1.465       .  A
C2497      C2498   1.426       .  A
C2497      C2500   1.454       .  S
C2498      C2501   1.455       .  S
C2500      N2505   1.158       .  T
C2501      N2503   1.158       .  T
C2502      N2504   1.157       .  T
C2507      C2508   1.440       .  A
C2507      C2512   1.449       .  A
C2508      C2509   1.420       .  A
C2508      C2513   1.448       .  S
C2509      C2510   1.414       .  A
C2509      C2516   1.456       .  S
C2510      C2511   1.402       .  A
C2511      C2512   1.412       .  A
C2511      C2514   1.458       .  S
C2512      C2515   1.450       .  S
C2513      N2520   1.158       .  T
C2514      N2519   1.157       .  T
C2515      N2517   1.157       .  T
C2516      N2518   1.157       .  T
C2521      C2522   1.399       .  A
C2521      C2526   1.404       .  A
C2522      C2523   1.416       .  A
C2522      C2527   1.452       .  S
C2523      C2524   1.444       .  A
C2523      C2530   1.451       .  S
C2524      C2525   1.445       .  A
C2525      C2526   1.416       .  A
C2525      C2528   1.453       .  S
C2526      C2529   1.456       .  S
C2527      N2534   1.157       .  T
C2528      N2533   1.158       .  T
C2529      N3399   1.157       .  T
C2530      N2532   1.157       .  T
N2531      C3397   1.157   1_545  T
C2535      C2536   1.403       .  A
C2535      C2540   1.420       .  A
C2536      C2537   1.412       .  A
C2536      C2541   1.457       .  S
C2537      C2538   1.449       .  A
C2537      C2544   1.450       .  S
C2538      C2539   1.436       .  A
C2539      C2540   1.422       .  A
C2539      C2542   1.449       .  S
C2540      C2543   1.453       .  S
C2541      N2548   1.157       .  T
C2542      N2547   1.158       .  T
C2543      N2545   1.157   1_545  T
C2544      N2546   1.158       .  T
C2549      C2550   1.395       .  A
C2549      C2554   1.408       .  A
C2550      C2551   1.419       .  A
C2550      C2555   1.455       .  S
C2551      C2552   1.458       .  A
C2551      C2558   1.453       .  S
C2552      C2553   1.444       .  A
C2553      C2554   1.422       .  A
C2553      C2556   1.450       .  S
C2554      C2557   1.456       .  S
C2555      N2562   1.157       .  T
C2556      N2561   1.158       .  T
C2557      N2559   1.157       .  T
C2558      N2560   1.158       .  T
C2563      C2564   1.447       .  A
C2563      C2568   1.456       .  A
C2564      C2565   1.420       .  A
C2564      C2569   1.453       .  S
C2565      C2566   1.414       .  A
C2565      C2572   1.458       .  S
C2566      C2567   1.399       .  A
C2567      C2568   1.417       .  A
C2567      C2570   1.456       .  S
C2568      C2571   1.454       .  S
C2569      N2576   1.159       .  T
C2570      N2575   1.157       .  T
C2571      N2573   1.158       .  T
C2572      N2574   1.158   1_545  T
C2577      C2578   1.414       .  A
C2577      C2582   1.399       .  A
C2578      C2579   1.422       .  A
C2578      C2583   1.447       .  S
C2579      C2580   1.435       .  A
C2579      C2586   1.449       .  S
C2580      C2581   1.448       .  A
C2581      C2582   1.415       .  A
C2581      C2584   1.446       .  S
C2582      C2585   1.457       .  S
C2583      N2590   1.154       .  T
C2584      N2589   1.157       .  T
C2585      N2587   1.157       .  T
C2586      N2588   1.158       .  T
C2591      C2592   1.431       .  A
C2591      C2596   1.454       .  A
C2592      C2593   1.411       .  A
C2592      C2597   1.445       .  S
C2593      C2594   1.404       .  A
C2593      C2600   1.455       .  S
C2594      C2595   1.388       .  A
C2595      C2596   1.406       .  A
C2595      C2598   1.457       .  S
C2596      C2599   1.450       .  S
C2597      N2604   1.157       .  T
C2598      N3471   1.157       .  T
C2599      N2601   1.157       .  T
C2600      N2602   1.157       .  T
N2603      C3466   1.157   1_545  T
Zn2605     O2610   1.958       .  S
Zn2605     O2621   1.926       .  S
Zn2606     O2613   1.993       .  S
Zn2606     O2617   1.948       .  S
Zn2607     O2612   2.037       .  S
Zn2607     O2615   2.015       .  S
Zn2607     O2618   1.935       .  S
Zn2607     O2609   1.922       .  S
Zn2608     O2616   2.117   1_565  S
Zn2608     O2619   2.100       .  S
Zn2608     O2620   2.101       .  S
O2610      C2622   1.263       .  A
O2611      C2623   1.269       .  A
O2612      C2624   1.277       .  A
O2613      C2622   1.271       .  A
O2614      C2624   1.268       .  A
O2615      C2623   1.275       .  A
O2617      C2626   1.264       .  A
O2618      C2625   1.263       .  A
O2619      C2626   1.286       .  A
O2620      C2627   1.284       .  A
O2621      C2627   1.262       .  A
C2622      C3028   1.465       .  S
C2623      C2969   1.501       .  S
C2624      C3000   1.503       .  S
C2625      C2983   1.490       .  S
C2626      C3011   1.493       .  S
C2627      C2955   1.483       .  S
Zn2628     O2633   2.001       .  S
Zn2628     O2644   1.894       .  S
Zn2628     O2632   1.921   1_655  S
Zn2629     O2636   1.985       .  S
Zn2629     O2640   1.905       .  S
Zn2629     O2632   1.911   1_655  S
Zn2630     O2635   2.025       .  S
Zn2630     O2638   2.022       .  S
Zn2630     O2641   1.968       .  S
Zn2631     O2639   2.140   1_655  S
Zn2631     O2642   2.143       .  S
Zn2631     O2643   2.135       .  S
Zn2631     O2632   2.023   1_655  S
O2633      C2645   1.269       .  A
O2634      C2646   1.272       .  A
O2635      C2647   1.274       .  A
O2636      C2645   1.269       .  A
O2637      C2647   1.268       .  A
O2638      C2646   1.275       .  A
O2640      C2649   1.259       .  A
O2641      C2648   1.267       .  A
O2642      C2649   1.287       .  A
O2643      C2650   1.287       .  A
O2644      C2650   1.257       .  A
C2645      C2944   1.493       .  S
C2646      C2913   1.502       .  S
C2647      C2885   1.499       .  S
C2648      C2871   1.501       .  S
C2649      C2899   1.498       .  S
C2650      C2927   1.509       .  S
Zn2651     O2656   1.990       .  S
Zn2651     O3094   1.970       .  S
Zn2651     O2667   1.915       .  S
Zn2651     O2655   1.885       .  S
Zn2652     O3091   2.010       .  S
Zn2652     O2659   1.985       .  S
Zn2652     O2663   1.945       .  S
Zn2652     O2655   1.900       .  S
Zn2653     O2658   2.013       .  S
Zn2653     O2661   2.000       .  S
Zn2653     O2664   1.934       .  S
Zn2653     O3089   1.905       .  S
Zn2654     O2662   2.136       .  S
Zn2654     O2665   2.148       .  S
Zn2654     O2666   2.144       .  S
Zn2654     O2655   1.962       .  S
O2655     Zn3087   1.905       .  S
O2656      C2668   1.271       .  A
O2657     Zn3086   2.010   1_554  S
O2657      C2669   1.271       .  A
O2658      C2670   1.272       .  A
O2659      C2668   1.270       .  A
O2660     Zn3085   1.970   1_554  S
O2660      C2670   1.268       .  A
O2661      C2669   1.275       .  A
O2662      C3105   1.291       .  A
O2663      C2672   1.258       .  A
O2664      C2671   1.262       .  A
O2665      C2672   1.291       .  A
O2666      C2673   1.290       .  A
O2667      C2673   1.260       .  A
C2668      C2857   1.478       .  S
C2669      C2787   1.475       .  S
C2670      C2832   1.473       .  S
C2671      O3096   1.291       .  A
C2671      C2846   1.513       .  S
C2672      C2801   1.510       .  S
C2673      C2818   1.505       .  S
Zn2674     O3117   2.023       .  S
Zn2674     O2690   1.903   1_556  S
Zn2675     O3114   2.024       .  S
Zn2675     O2686   1.945   1_556  S
Zn2676     O2687   1.941       .  S
Zn2676     O3112   1.918       .  S
Zn2677     O2685   2.084   1_554  S
Zn2677     O2688   2.075       .  S
Zn2677     O2689   2.111       .  S
Zn2677     O2678   2.011   1_554  S
O2678     Zn3110   1.918       .  S
O2679      C2691   1.273       .  A
O2680     Zn3109   2.024       .  S
O2680      C2692   1.275       .  A
O2681      C2693   1.277       .  A
O2682      C2691   1.273       .  A
O2683     Zn3108   2.023       .  S
O2683      C2693   1.275       .  A
O2684      C2692   1.276       .  A
O2685      C3128   1.281       .  A
O2686      C2695   1.265       .  A
O2687      C2694   1.265       .  A
O2690      C2696   1.254       .  A
C2691      C2776   1.508       .  S
C2692      C2748   1.504       .  S
C2693      C2759   1.503       .  S
C2694      O3119   1.281       .  A
C2694      C2731   1.480       .  S
C2695      C2703   1.481       .  S
C2696      C2720   1.520       .  S
C2697      C2773   1.603       .  S
C2697      C2843   1.626       .  S
C2697      C2930   1.613       .  S
C2697      C3014   1.596       .  S
C2698      C2762   1.615       .  S
C2698      C2815   1.612       .  S
C2698      C2902   1.619       .  S
C2698      C2986   1.615       .  S
C2699      C2745   1.606       .  S
C2699      C2804   1.629       .  S
C2699      C2874   1.625       .  S
C2699      C2958   1.589       .  S
C2700      C2734   1.607       .  S
C2700      C2860   1.600       .  S
C2700      C2916   1.606       .  S
C2700      C2997   1.614       .  S
C2701      C2717   1.621       .  S
C2701      C2829   1.612       .  S
C2701      C2941   1.596       .  S
C2701      C2972   1.599       .  S
C2702      C2706   1.599       .  S
C2702      C2790   1.612       .  S
C2702      C2888   1.598       .  S
C2702      C3025   1.598       .  S
C2703      C2704   1.401       .  A
C2703      C2708   1.395       .  A
C2704      C2705   1.414       .  A
C2704      C2709   1.450       .  S
C2705      C2706   1.439       .  A
C2705      C2712   1.446       .  S
C2706      C2707   1.451       .  A
C2707      C2708   1.416       .  A
C2707      C2710   1.447       .  S
C2708      C2711   1.456       .  S
C2709      N3150   1.156   1_554  T
C2710      N2715   1.157       .  T
C2711      N2713   1.157       .  T
C2712      N2714   1.158       .  T
N2716      C3143   1.156       .  T
C2717      C2718   1.454       .  A
C2717      C2722   1.431       .  A
C2718      C2719   1.416       .  A
C2718      C2723   1.453       .  S
C2719      C2720   1.403       .  A
C2719      C2726   1.455       .  S
C2720      C2721   1.432       .  A
C2721      C2722   1.420       .  A
C2721      C2724   1.458       .  S
C2722      C2725   1.449       .  S
C2723      N2730   1.158       .  T
C2724      N2729   1.158       .  T
C2725      N2727   1.158       .  T
C2731      C2732   1.400       .  A
C2731      C2736   1.395       .  A
C2732      C2733   1.413       .  A
C2732      C2737   1.458       .  S
C2733      C2734   1.444       .  A
C2733      C2740   1.442       .  S
C2734      C2735   1.453       .  A
C2735      C2736   1.419       .  A
C2735      C2738   1.451       .  S
C2736      C2739   1.453       .  S
C2737      N2744   1.157       .  T
C2738      N2743   1.157       .  T
C2739      N3175   1.157       .  T
C2740      N2742   1.154       .  T
N2741      C3173   1.157       .  T
C2745      C2746   1.442       .  A
C2745      C2750   1.428       .  A
C2746      C2747   1.418       .  A
C2746      C2751   1.448       .  S
C2747      C2748   1.406       .  A
C2747      C2754   1.455       .  S
C2748      C2749   1.413       .  A
C2749      C2750   1.414       .  A
C2749      C2752   1.450       .  S
C2750      C2753   1.451       .  S
C2751      N2758   1.158       .  T
C2752      N3191   1.157       .  T
C2753      N2755   1.158       .  T
C2754      N2756   1.157       .  T
N2757      C3186   1.157       .  T
C2759      C2760   1.411       .  A
C2759      C2764   1.399       .  A
C2760      C2761   1.421       .  A
C2760      C2765   1.453       .  S
C2761      C2762   1.445       .  A
C2761      C2768   1.449       .  S
C2762      C2763   1.455       .  A
C2763      C2764   1.418       .  A
C2763      C2766   1.452       .  S
C2764      C2767   1.454       .  S
C2765      N2772   1.156       .  T
C2766      N2771   1.157       .  T
C2768      N2770   1.158       .  T
C2773      C2774   1.434       .  A
C2773      C2778   1.444       .  A
C2774      C2775   1.418       .  A
C2774      C2779   1.451       .  S
C2775      C2776   1.420       .  A
C2775      C2782   1.453       .  S
C2776      C2777   1.411       .  A
C2777      C2778   1.418       .  A
C2777      C2780   1.455       .  S
C2778      C2781   1.450       .  S
C2779      N2786   1.158       .  T
C2780      N3219   1.157       .  T
C2781      N2783   1.158       .  T
N2785      C3214   1.157       .  T
C2787      C2788   1.409       .  A
C2787      C2792   1.390       .  A
C2788      C2789   1.423       .  A
C2788      C2793   1.453       .  S
C2789      C2790   1.438       .  A
C2789      C2796   1.445       .  S
C2790      C2791   1.449       .  A
C2791      C2792   1.400       .  A
C2791      C2794   1.451       .  S
C2792      C2795   1.456       .  S
C2793      N2800   1.157       .  T
C2794      N2799   1.158       .  T
C2795      N2797   1.157       .  T
C2796      N2798   1.157       .  T
C2801      C2802   1.396       .  A
C2801      C2806   1.428       .  A
C2802      C2803   1.409       .  A
C2802      C2807   1.452       .  S
C2803      C2804   1.450       .  A
C2803      C2810   1.449       .  S
C2804      C2805   1.438       .  A
C2805      C2806   1.426       .  A
C2805      C2808   1.456       .  S
C2806      C2809   1.454       .  S
C2807      N2814   1.157       .  T
C2808      N2813   1.158       .  T
C2809      N2811   1.157       .  T
C2810      N2812   1.158       .  T
C2815      C2816   1.438       .  A
C2815      C2820   1.455       .  A
C2816      C2817   1.403       .  A
C2816      C2821   1.453       .  S
C2817      C2818   1.416       .  A
C2817      C2824   1.452       .  S
C2818      C2819   1.404       .  A
C2819      C2820   1.427       .  A
C2819      C2822   1.452       .  S
C2820      C2823   1.451       .  S
C2821      N2828   1.159       .  T
C2822      N2827   1.157       .  T
C2823      N2825   1.158       .  T
C2824      N2826   1.157       .  T
C2829      C2830   1.458       .  A
C2829      C2834   1.435       .  A
C2830      C2831   1.404       .  A
C2830      C2835   1.454       .  S
C2831      C2832   1.386       .  A
C2831      C2838   1.457       .  S
C2832      C2833   1.410       .  A
C2833      C2834   1.420       .  A
C2833      C2836   1.455       .  S
C2834      C2837   1.447       .  S
C2835      N2842   1.158       .  T
C2836      N2841   1.157       .  T
C2837      N2839   1.157       .  T
C2838      N2840   1.157       .  T
C2843      C2844   1.435       .  A
C2843      C2848   1.451       .  A
C2844      C2845   1.426       .  A
C2844      C2849   1.447       .  S
C2845      C2846   1.427       .  A
C2845      C2852   1.455       .  S
C2846      C2847   1.398       .  A
C2847      C2848   1.414       .  A
C2847      C2850   1.452       .  S
C2848      C2851   1.448       .  S
C2849      N2856   1.158       .  T
C2850      N3289   1.157   1_554  T
C2851      N2853   1.158       .  T
C2852      N2854   1.157       .  T
N2855      C3284   1.157       .  T
C2857      C2858   1.395       .  A
C2857      C2862   1.401       .  A
C2858      C2859   1.414       .  A
C2858      C2863   1.453       .  S
C2859      C2860   1.457       .  A
C2859      C2866   1.449       .  S
C2860      C2861   1.440       .  A
C2861      C2862   1.397       .  A
C2861      C2864   1.449       .  S
C2862      C2865   1.452       .  S
C2863      N3304   1.157       .  T
C2864      N2869   1.158       .  T
C2865      N2867   1.158       .  T
C2866      N2868   1.158       .  T
N2870      C3297   1.157   1_554  T
C2871      C2872   1.408       .  A
C2871      C2876   1.410       .  A
C2872      C2873   1.423       .  A
C2872      C2877   1.452       .  S
C2873      C2874   1.436       .  A
C2873      C2880   1.450       .  S
C2874      C2875   1.425       .  A
C2875      C2876   1.420       .  A
C2875      C2878   1.448       .  S
C2876      C2879   1.451       .  S
C2877      N2884   1.157       .  T
C2878      N2883   1.158       .  T
C2879      N2881   1.157       .  T
C2880      N2882   1.158       .  T
C2885      C2886   1.410       .  A
C2885      C2890   1.415       .  A
C2886      C2887   1.415       .  A
C2886      C2891   1.455       .  S
C2887      C2888   1.440       .  A
C2887      C2894   1.451       .  S
C2888      C2889   1.436       .  A
C2889      C2890   1.416       .  A
C2889      C2892   1.450       .  S
C2890      C2893   1.453       .  S
C2891      N2898   1.158       .  T
C2892      N2897   1.158       .  T
C2893      N2895   1.157       .  T
C2894      N2896   1.157       .  T
C2899      C2900   1.396       .  A
C2899      C2904   1.406       .  A
C2900      C2901   1.426       .  A
C2900      C2905   1.452       .  S
C2901      C2902   1.455       .  A
C2901      C2908   1.450       .  S
C2902      C2903   1.448       .  A
C2903      C2904   1.418       .  A
C2903      C2906   1.446       .  S
C2904      C2907   1.457       .  S
C2905      N2912   1.157       .  T
C2906      N2911   1.157       .  T
C2907      N2909   1.156   1_655  T
C2908      N2910   1.157       .  T
C2913      C2914   1.410       .  A
C2913      C2918   1.403       .  A
C2914      C2915   1.420       .  A
C2914      C2919   1.454       .  S
C2915      C2916   1.444       .  A
C2915      C2922   1.450       .  S
C2916      C2917   1.449       .  A
C2917      C2918   1.416       .  A
C2917      C2920   1.452       .  S
C2918      C2921   1.455       .  S
C2919      N2926   1.157       .  T
C2920      N2925   1.157       .  T
C2921      N2923   1.157       .  T
C2922      N2924   1.158       .  T
C2927      C2928   1.418       .  A
C2927      C2932   1.398       .  A
C2928      C2929   1.409       .  A
C2928      C2933   1.451       .  S
C2929      C2930   1.421       .  A
C2929      C2936   1.447       .  S
C2930      C2931   1.465       .  A
C2931      C2932   1.426       .  A
C2931      C2934   1.454       .  S
C2932      C2935   1.455       .  S
C2934      N2939   1.158       .  T
C2935      N2937   1.158       .  T
C2936      N2938   1.157       .  T
C2941      C2942   1.440       .  A
C2941      C2946   1.449       .  A
C2942      C2943   1.420       .  A
C2942      C2947   1.448       .  S
C2943      C2944   1.414       .  A
C2943      C2950   1.456       .  S
C2944      C2945   1.402       .  A
C2945      C2946   1.412       .  A
C2945      C2948   1.458       .  S
C2946      C2949   1.450       .  S
C2947      N2954   1.158       .  T
C2948      N2953   1.157       .  T
C2949      N2951   1.157       .  T
C2950      N2952   1.157       .  T
C2955      C2956   1.399       .  A
C2955      C2960   1.404       .  A
C2956      C2957   1.416       .  A
C2956      C2961   1.452       .  S
C2957      C2958   1.444       .  A
C2957      C2964   1.451       .  S
C2958      C2959   1.445       .  A
C2959      C2960   1.416       .  A
C2959      C2962   1.453       .  S
C2960      C2963   1.456       .  S
C2961      N2968   1.157       .  T
C2962      N2967   1.158       .  T
C2964      N2966   1.157       .  T
C2969      C2970   1.403       .  A
C2969      C2974   1.420       .  A
C2970      C2971   1.412       .  A
C2970      C2975   1.457       .  S
C2971      C2972   1.449       .  A
C2971      C2978   1.450       .  S
C2972      C2973   1.436       .  A
C2973      C2974   1.422       .  A
C2973      C2976   1.449       .  S
C2974      C2977   1.453       .  S
C2975      N2982   1.157       .  T
C2976      N2981   1.158       .  T
C2977      N2979   1.157       .  T
C2978      N2980   1.158       .  T
C2983      C2984   1.395       .  A
C2983      C2988   1.408       .  A
C2984      C2985   1.419       .  A
C2984      C2989   1.455       .  S
C2985      C2986   1.458       .  A
C2985      C2992   1.453       .  S
C2986      C2987   1.444       .  A
C2987      C2988   1.422       .  A
C2987      C2990   1.450       .  S
C2988      C2991   1.456       .  S
C2989      N2996   1.157       .  T
C2990      N2995   1.158       .  T
C2991      N2993   1.157       .  T
C2992      N2994   1.158       .  T
C2997      C2998   1.447       .  A
C2997      C3002   1.456       .  A
C2998      C2999   1.420       .  A
C2998      C3003   1.453       .  S
C2999      C3000   1.414       .  A
C2999      C3006   1.458       .  S
C3000      C3001   1.399       .  A
C3001      C3002   1.417       .  A
C3001      C3004   1.456       .  S
C3002      C3005   1.454       .  S
C3003      N3010   1.159       .  T
C3004      N3009   1.157       .  T
C3005      N3007   1.158       .  T
C3006      N3008   1.158       .  T
C3011      C3012   1.414       .  A
C3011      C3016   1.399       .  A
C3012      C3013   1.422       .  A
C3012      C3017   1.447       .  S
C3013      C3014   1.435       .  A
C3013      C3020   1.449       .  S
C3014      C3015   1.448       .  A
C3015      C3016   1.415       .  A
C3015      C3018   1.446       .  S
C3016      C3019   1.457       .  S
C3017      N3024   1.154       .  T
C3018      N3023   1.157       .  T
C3019      N3021   1.157       .  T
C3020      N3022   1.158       .  T
C3025      C3026   1.431       .  A
C3025      C3030   1.454       .  A
C3026      C3027   1.411       .  A
C3026      C3031   1.445       .  S
C3027      C3028   1.404       .  A
C3027      C3034   1.455       .  S
C3028      C3029   1.388       .  A
C3029      C3030   1.406       .  A
C3029      C3032   1.457       .  S
C3030      C3033   1.450       .  S
C3031      N3038   1.157       .  T
C3033      N3035   1.157       .  T
C3034      N3036   1.157       .  T
Zn3039     O3044   1.958       .  S
Zn3039     O3055   1.926       .  S
Zn3040     O3047   1.993       .  S
Zn3040     O3051   1.948       .  S
Zn3041     O3046   2.037       .  S
Zn3041     O3049   2.015       .  S
Zn3041     O3052   1.935       .  S
Zn3041     O3043   1.922       .  S
Zn3042     O3050   2.117   1_565  S
Zn3042     O3053   2.100       .  S
Zn3042     O3054   2.101       .  S
O3044      C3056   1.263       .  A
O3045      C3057   1.269       .  A
O3046      C3058   1.277       .  A
O3047      C3056   1.271       .  A
O3048      C3058   1.268       .  A
O3049      C3057   1.275       .  A
O3051      C3060   1.264       .  A
O3052      C3059   1.263       .  A
O3053      C3060   1.286       .  A
O3054      C3061   1.284       .  A
O3055      C3061   1.262       .  A
C3056      C3462   1.465       .  S
C3057      C3403   1.501       .  S
C3058      C3434   1.503       .  S
C3059      C3417   1.490       .  S
C3060      C3445   1.493       .  S
C3061      C3389   1.483       .  S
Zn3062     O3067   2.001       .  S
Zn3062     O3078   1.894       .  S
Zn3062     O3066   1.921   1_655  S
Zn3063     O3070   1.985       .  S
Zn3063     O3074   1.905       .  S
Zn3063     O3066   1.911   1_655  S
Zn3064     O3069   2.025       .  S
Zn3064     O3072   2.022       .  S
Zn3064     O3075   1.968       .  S
Zn3065     O3073   2.140   1_655  S
Zn3065     O3076   2.143       .  S
Zn3065     O3077   2.135       .  S
Zn3065     O3066   2.023   1_655  S
O3067      C3079   1.269       .  A
O3068      C3080   1.272       .  A
O3069      C3081   1.274       .  A
O3070      C3079   1.269       .  A
O3071      C3081   1.268       .  A
O3072      C3080   1.275       .  A
O3074      C3083   1.259       .  A
O3075      C3082   1.267       .  A
O3076      C3083   1.287       .  A
O3077      C3084   1.287       .  A
O3078      C3084   1.257       .  A
C3079      C3378   1.493       .  S
C3080      C3347   1.502       .  S
C3081      C3319   1.499       .  S
C3082      C3305   1.501       .  S
C3083      C3333   1.498       .  S
C3084      C3361   1.509       .  S
Zn3085     O3090   1.990       .  S
Zn3085     O3101   1.915       .  S
Zn3085     O3089   1.885   1_556  S
Zn3086     O3093   1.985       .  S
Zn3086     O3097   1.945       .  S
Zn3086     O3089   1.900   1_556  S
Zn3087     O3092   2.013       .  S
Zn3087     O3095   2.000       .  S
Zn3087     O3098   1.934       .  S
Zn3088     O3096   2.136   1_556  S
Zn3088     O3099   2.148       .  S
Zn3088     O3100   2.144       .  S
Zn3088     O3089   1.962   1_556  S
O3090      C3102   1.271       .  A
O3091      C3103   1.271       .  A
O3092      C3104   1.272       .  A
O3093      C3102   1.270       .  A
O3094      C3104   1.268       .  A
O3095      C3103   1.275       .  A
O3097      C3106   1.258       .  A
O3098      C3105   1.262       .  A
O3099      C3106   1.291       .  A
O3100      C3107   1.290       .  A
O3101      C3107   1.260       .  A
C3102      C3291   1.478       .  S
C3103      C3221   1.475       .  S
C3104      C3266   1.473       .  S
C3105      C3280   1.513       .  S
C3106      C3235   1.510       .  S
C3107      C3252   1.505       .  S
Zn3108     O3124   1.903       .  S
Zn3109     O3120   1.945       .  S
Zn3110     O3121   1.941       .  S
Zn3111     O3119   2.084       .  S
Zn3111     O3122   2.075       .  S
Zn3111     O3123   2.111       .  S
Zn3111     O3112   2.011       .  S
O3113      C3125   1.273       .  A
O3114      C3126   1.275       .  A
O3115      C3127   1.277       .  A
O3116      C3125   1.273       .  A
O3117      C3127   1.275       .  A
O3118      C3126   1.276       .  A
O3120      C3129   1.265       .  A
O3121      C3128   1.265       .  A
O3124      C3130   1.254       .  A
C3125      C3210   1.508       .  S
C3126      C3182   1.504       .  S
C3127      C3193   1.503       .  S
C3128      C3165   1.480       .  S
C3129      C3137   1.481       .  S
C3130      C3154   1.520       .  S
C3131      C3207   1.603       .  S
C3131      C3277   1.626       .  S
C3131      C3364   1.613       .  S
C3131      C3448   1.596       .  S
C3132      C3196   1.615       .  S
C3132      C3249   1.612       .  S
C3132      C3336   1.619       .  S
C3132      C3420   1.615       .  S
C3133      C3179   1.606       .  S
C3133      C3238   1.629       .  S
C3133      C3308   1.625       .  S
C3133      C3392   1.589       .  S
C3134      C3168   1.607       .  S
C3134      C3294   1.600       .  S
C3134      C3350   1.606       .  S
C3134      C3431   1.614       .  S
C3135      C3151   1.621       .  S
C3135      C3263   1.612       .  S
C3135      C3375   1.596       .  S
C3135      C3406   1.599       .  S
C3136      C3140   1.599       .  S
C3136      C3224   1.612       .  S
C3136      C3322   1.598       .  S
C3136      C3459   1.598       .  S
C3137      C3138   1.401       .  A
C3137      C3142   1.395       .  A
C3138      C3139   1.414       .  A
C3138      C3143   1.450       .  S
C3139      C3140   1.439       .  A
C3139      C3146   1.446       .  S
C3140      C3141   1.451       .  A
C3141      C3142   1.416       .  A
C3141      C3144   1.447       .  S
C3142      C3145   1.456       .  S
C3144      N3149   1.157       .  T
C3145      N3147   1.157       .  T
C3146      N3148   1.158       .  T
C3151      C3152   1.454       .  A
C3151      C3156   1.431       .  A
C3152      C3153   1.416       .  A
C3152      C3157   1.453       .  S
C3153      C3154   1.403       .  A
C3153      C3160   1.455       .  S
C3154      C3155   1.432       .  A
C3155      C3156   1.420       .  A
C3155      C3158   1.458       .  S
C3156      C3159   1.449       .  S
C3157      N3164   1.158       .  T
C3158      N3163   1.158       .  T
C3159      N3161   1.158       .  T
C3165      C3166   1.400       .  A
C3165      C3170   1.395       .  A
C3166      C3167   1.413       .  A
C3166      C3171   1.458       .  S
C3167      C3168   1.444       .  A
C3167      C3174   1.442       .  S
C3168      C3169   1.453       .  A
C3169      C3170   1.419       .  A
C3169      C3172   1.451       .  S
C3170      C3173   1.453       .  S
C3171      N3178   1.157       .  T
C3172      N3177   1.157       .  T
C3174      N3176   1.154       .  T
C3179      C3180   1.442       .  A
C3179      C3184   1.428       .  A
C3180      C3181   1.418       .  A
C3180      C3185   1.448       .  S
C3181      C3182   1.406       .  A
C3181      C3188   1.455       .  S
C3182      C3183   1.413       .  A
C3183      C3184   1.414       .  A
C3183      C3186   1.450       .  S
C3184      C3187   1.451       .  S
C3185      N3192   1.158       .  T
C3187      N3189   1.158       .  T
C3188      N3190   1.157       .  T
C3193      C3194   1.411       .  A
C3193      C3198   1.399       .  A
C3194      C3195   1.421       .  A
C3194      C3199   1.453       .  S
C3195      C3196   1.445       .  A
C3195      C3202   1.449       .  S
C3196      C3197   1.455       .  A
C3197      C3198   1.418       .  A
C3197      C3200   1.452       .  S
C3198      C3201   1.454       .  S
C3199      N3206   1.156       .  T
C3200      N3205   1.157       .  T
C3202      N3204   1.158       .  T
C3207      C3208   1.434       .  A
C3207      C3212   1.444       .  A
C3208      C3209   1.418       .  A
C3208      C3213   1.451       .  S
C3209      C3210   1.420       .  A
C3209      C3216   1.453       .  S
C3210      C3211   1.411       .  A
C3211      C3212   1.418       .  A
C3211      C3214   1.455       .  S
C3212      C3215   1.450       .  S
C3213      N3220   1.158       .  T
C3215      N3217   1.158       .  T
C3221      C3222   1.409       .  A
C3221      C3226   1.390       .  A
C3222      C3223   1.423       .  A
C3222      C3227   1.453       .  S
C3223      C3224   1.438       .  A
C3223      C3230   1.445       .  S
C3224      C3225   1.449       .  A
C3225      C3226   1.400       .  A
C3225      C3228   1.451       .  S
C3226      C3229   1.456       .  S
C3227      N3234   1.157       .  T
C3228      N3233   1.158       .  T
C3229      N3231   1.157       .  T
C3230      N3232   1.157       .  T
C3235      C3236   1.396       .  A
C3235      C3240   1.428       .  A
C3236      C3237   1.409       .  A
C3236      C3241   1.452       .  S
C3237      C3238   1.450       .  A
C3237      C3244   1.449       .  S
C3238      C3239   1.438       .  A
C3239      C3240   1.426       .  A
C3239      C3242   1.456       .  S
C3240      C3243   1.454       .  S
C3241      N3248   1.157       .  T
C3242      N3247   1.158       .  T
C3243      N3245   1.157       .  T
C3244      N3246   1.158       .  T
C3249      C3250   1.438       .  A
C3249      C3254   1.455       .  A
C3250      C3251   1.403       .  A
C3250      C3255   1.453       .  S
C3251      C3252   1.416       .  A
C3251      C3258   1.452       .  S
C3252      C3253   1.404       .  A
C3253      C3254   1.427       .  A
C3253      C3256   1.452       .  S
C3254      C3257   1.451       .  S
C3255      N3262   1.159       .  T
C3256      N3261   1.157       .  T
C3257      N3259   1.158       .  T
C3258      N3260   1.157       .  T
C3263      C3264   1.458       .  A
C3263      C3268   1.435       .  A
C3264      C3265   1.404       .  A
C3264      C3269   1.454       .  S
C3265      C3266   1.386       .  A
C3265      C3272   1.457       .  S
C3266      C3267   1.410       .  A
C3267      C3268   1.420       .  A
C3267      C3270   1.455       .  S
C3268      C3271   1.447       .  S
C3269      N3276   1.158       .  T
C3270      N3275   1.157       .  T
C3271      N3273   1.157       .  T
C3272      N3274   1.157       .  T
C3277      C3278   1.435       .  A
C3277      C3282   1.451       .  A
C3278      C3279   1.426       .  A
C3278      C3283   1.447       .  S
C3279      C3280   1.427       .  A
C3279      C3286   1.455       .  S
C3280      C3281   1.398       .  A
C3281      C3282   1.414       .  A
C3281      C3284   1.452       .  S
C3282      C3285   1.448       .  S
C3283      N3290   1.158       .  T
C3285      N3287   1.158       .  T
C3286      N3288   1.157       .  T
C3291      C3292   1.395       .  A
C3291      C3296   1.401       .  A
C3292      C3293   1.414       .  A
C3292      C3297   1.453       .  S
C3293      C3294   1.457       .  A
C3293      C3300   1.449       .  S
C3294      C3295   1.440       .  A
C3295      C3296   1.397       .  A
C3295      C3298   1.449       .  S
C3296      C3299   1.452       .  S
C3298      N3303   1.158       .  T
C3299      N3301   1.158       .  T
C3300      N3302   1.158       .  T
C3305      C3306   1.408       .  A
C3305      C3310   1.410       .  A
C3306      C3307   1.423       .  A
C3306      C3311   1.452       .  S
C3307      C3308   1.436       .  A
C3307      C3314   1.450       .  S
C3308      C3309   1.425       .  A
C3309      C3310   1.420       .  A
C3309      C3312   1.448       .  S
C3310      C3313   1.451       .  S
C3311      N3318   1.157       .  T
C3312      N3317   1.158       .  T
C3313      N3315   1.157       .  T
C3314      N3316   1.158       .  T
C3319      C3320   1.410       .  A
C3319      C3324   1.415       .  A
C3320      C3321   1.415       .  A
C3320      C3325   1.455       .  S
C3321      C3322   1.440       .  A
C3321      C3328   1.451       .  S
C3322      C3323   1.436       .  A
C3323      C3324   1.416       .  A
C3323      C3326   1.450       .  S
C3324      C3327   1.453       .  S
C3325      N3332   1.158       .  T
C3326      N3331   1.158       .  T
C3327      N3329   1.157       .  T
C3328      N3330   1.157       .  T
C3333      C3334   1.396       .  A
C3333      C3338   1.406       .  A
C3334      C3335   1.426       .  A
C3334      C3339   1.452       .  S
C3335      C3336   1.455       .  A
C3335      C3342   1.450       .  S
C3336      C3337   1.448       .  A
C3337      C3338   1.418       .  A
C3337      C3340   1.446       .  S
C3338      C3341   1.457       .  S
C3339      N3346   1.157       .  T
C3340      N3345   1.157       .  T
C3341      N3343   1.156   1_655  T
C3342      N3344   1.157       .  T
C3347      C3348   1.410       .  A
C3347      C3352   1.403       .  A
C3348      C3349   1.420       .  A
C3348      C3353   1.454       .  S
C3349      C3350   1.444       .  A
C3349      C3356   1.450       .  S
C3350      C3351   1.449       .  A
C3351      C3352   1.416       .  A
C3351      C3354   1.452       .  S
C3352      C3355   1.455       .  S
C3353      N3360   1.157       .  T
C3354      N3359   1.157       .  T
C3355      N3357   1.157       .  T
C3356      N3358   1.158       .  T
C3361      C3362   1.418       .  A
C3361      C3366   1.398       .  A
C3362      C3363   1.409       .  A
C3362      C3367   1.451       .  S
C3363      C3364   1.421       .  A
C3363      C3370   1.447       .  S
C3364      C3365   1.465       .  A
C3365      C3366   1.426       .  A
C3365      C3368   1.454       .  S
C3366      C3369   1.455       .  S
C3368      N3373   1.158       .  T
C3369      N3371   1.158       .  T
C3370      N3372   1.157       .  T
C3375      C3376   1.440       .  A
C3375      C3380   1.449       .  A
C3376      C3377   1.420       .  A
C3376      C3381   1.448       .  S
C3377      C3378   1.414       .  A
C3377      C3384   1.456       .  S
C3378      C3379   1.402       .  A
C3379      C3380   1.412       .  A
C3379      C3382   1.458       .  S
C3380      C3383   1.450       .  S
C3381      N3388   1.158       .  T
C3382      N3387   1.157       .  T
C3383      N3385   1.157       .  T
C3384      N3386   1.157       .  T
C3389      C3390   1.399       .  A
C3389      C3394   1.404       .  A
C3390      C3391   1.416       .  A
C3390      C3395   1.452       .  S
C3391      C3392   1.444       .  A
C3391      C3398   1.451       .  S
C3392      C3393   1.445       .  A
C3393      C3394   1.416       .  A
C3393      C3396   1.453       .  S
C3394      C3397   1.456       .  S
C3395      N3402   1.157       .  T
C3396      N3401   1.158       .  T
C3398      N3400   1.157       .  T
C3403      C3404   1.403       .  A
C3403      C3408   1.420       .  A
C3404      C3405   1.412       .  A
C3404      C3409   1.457       .  S
C3405      C3406   1.449       .  A
C3405      C3412   1.450       .  S
C3406      C3407   1.436       .  A
C3407      C3408   1.422       .  A
C3407      C3410   1.449       .  S
C3408      C3411   1.453       .  S
C3409      N3416   1.157       .  T
C3410      N3415   1.158       .  T
C3411      N3413   1.157       .  T
C3412      N3414   1.158       .  T
C3417      C3418   1.395       .  A
C3417      C3422   1.408       .  A
C3418      C3419   1.419       .  A
C3418      C3423   1.455       .  S
C3419      C3420   1.458       .  A
C3419      C3426   1.453       .  S
C3420      C3421   1.444       .  A
C3421      C3422   1.422       .  A
C3421      C3424   1.450       .  S
C3422      C3425   1.456       .  S
C3423      N3430   1.157       .  T
C3424      N3429   1.158       .  T
C3425      N3427   1.157       .  T
C3426      N3428   1.158       .  T
C3431      C3432   1.447       .  A
C3431      C3436   1.456       .  A
C3432      C3433   1.420       .  A
C3432      C3437   1.453       .  S
C3433      C3434   1.414       .  A
C3433      C3440   1.458       .  S
C3434      C3435   1.399       .  A
C3435      C3436   1.417       .  A
C3435      C3438   1.456       .  S
C3436      C3439   1.454       .  S
C3437      N3444   1.159       .  T
C3438      N3443   1.157       .  T
C3439      N3441   1.158       .  T
C3440      N3442   1.158       .  T
C3445      C3446   1.414       .  A
C3445      C3450   1.399       .  A
C3446      C3447   1.422       .  A
C3446      C3451   1.447       .  S
C3447      C3448   1.435       .  A
C3447      C3454   1.449       .  S
C3448      C3449   1.448       .  A
C3449      C3450   1.415       .  A
C3449      C3452   1.446       .  S
C3450      C3453   1.457       .  S
C3451      N3458   1.154       .  T
C3452      N3457   1.157       .  T
C3453      N3455   1.157       .  T
C3454      N3456   1.158       .  T
C3459      C3460   1.431       .  A
C3459      C3464   1.454       .  A
C3460      C3461   1.411       .  A
C3460      C3465   1.445       .  S
C3461      C3462   1.404       .  A
C3461      C3468   1.455       .  S
C3462      C3463   1.388       .  A
C3463      C3464   1.406       .  A
C3463      C3466   1.457       .  S
C3464      C3467   1.450       .  S
C3465      N3472   1.157       .  T
C3467      N3469   1.157       .  T
C3468      N3470   1.157       .  T
