geometry optimzed in LAMMPS
_audit_creation_date              2020-12-01 
_audit_creation_method            'lammps2cif' 
_symmetry_space_group_name_H-M    'P1' 
_symmetry_Int_Tables_number       1 
_symmetry_cell_setting            triclinic 
loop_ 
_symmetry_equiv_pos_as_xyz 
  x,y,z 
_cell_length_a                    46.02723388 
_cell_length_b                    46.09886243364151 
_cell_length_c                    46.05251728044225 
_cell_angle_alpha                 89.92427825024483 
_cell_angle_beta                  89.96194008701244 
_cell_angle_gamma                 89.94618539917852 
loop_ 
_atom_site_label 
_atom_site_type_symbol 
_atom_site_fract_x 
_atom_site_fract_y 
_atom_site_fract_z 
_atom_site_charge 
C1          C  0.46950116  0.56710839  0.91350626     0.42400
N2          N  0.47330702  0.53818601  0.94982656     0.01200
C3          C  0.59005420  0.52385986  0.04310896    -0.06600
H4          H  0.61336604  0.50765312  0.93050949     0.06700
C5          C  0.54724961  0.42541862  0.92952005    -0.07000
Co6        Co  0.52629827  0.55017114  0.98493902     0.74200
N7          N  0.57715053  0.52187525  0.95664688    -0.26200
Co8        Co  0.57072145  0.48974537  0.98790817     0.74100
C9          C  0.57524783  0.43385804  0.91716021     0.42500
N10         N  0.48061320  0.45170397  0.94889374     0.00900
N11         N  0.56748294  0.45868576  0.95558929     0.01000
N12         N  0.56045133  0.56296787  0.03993977    -0.47000
H13         H  0.51200383  0.59065395  0.92552644     0.06700
N14         N  0.56002363  0.54479496  0.95533490     0.01300
N15         N  0.56257940  0.45771319  0.01884909     0.01000
C16         C  0.56537464  0.42957264  0.05585521     0.42600
N17         N  0.46365884  0.47478267  0.94851288    -0.25600
C18         C  0.48919243  0.57261415  0.03632875    -0.06500
N19         N  0.45658613  0.54471483  0.92735834    -0.46700
N20         N  0.57853515  0.45182803  0.04202964    -0.46900
C21         C  0.46093021  0.56549582  0.04871070     0.42400
N22         N  0.55572905  0.54448696  0.01856277     0.01200
N23         N  0.45919971  0.47311892  0.01151556    -0.25600
N24         N  0.49645704  0.55493312  0.95149896    -0.26100
N25         N  0.47609185  0.44997703  0.01196140     0.00900
H26         H  0.42167832  0.48556933  0.03673944     0.06800
H27         H  0.52342669  0.40549866  0.04292163     0.06800
N28         N  0.57270204  0.52147195  0.01985561    -0.26200
N29         N  0.54430278  0.44207676  0.95318196    -0.25800
N30         N  0.46938652  0.53703669  0.01309995     0.01200
C31         C  0.58953902  0.55036965  0.91974973     0.42600
C32         C  0.44656433  0.47369219  0.92508332    -0.07000
N33         N  0.53968888  0.44063885  0.01657846    -0.25800
H34         H  0.53147669  0.40990303  0.92175937     0.06800
N35         N  0.56662117  0.56235707  0.93356275    -0.47000
H36         H  0.43041255  0.48970301  0.91922714     0.06800
C37         C  0.44506378  0.44213277  0.04581696     0.42500
C38         C  0.49592982  0.57403283  0.92954029    -0.06500
Co39       Co  0.46567339  0.50591625  0.98078153     0.73800
N40         N  0.47604717  0.43435212  0.92649846    -0.46700
C41         C  0.58171160  0.55141717  0.05640891     0.42700
N42         N  0.44982382  0.54332434  0.03317964    -0.46700
Co43       Co  0.51012161  0.44531448  0.98259104     0.73900
C44         C  0.53963496  0.42199855  0.03895860    -0.07000
C45         C  0.59669323  0.52353915  0.93509139    -0.06600
N46         N  0.49247242  0.55391578  0.01442376    -0.26100
N47         N  0.58647901  0.45451105  0.93447828    -0.46900
H48         H  0.60663736  0.50847487  0.04944177     0.06800
C49         C  0.43883366  0.47018971  0.03221178    -0.07000
Cl50       Cl  0.51817980  0.49777468  0.98409781    -0.50000
C51         C  0.45490490  0.44691145  0.91051103     0.42500
H52         H  0.50451352  0.58934839  0.04225534     0.06700
N53         N  0.46839928  0.43095168  0.03206664    -0.46700
C54         C  0.44498921  0.93882808  0.53974525     0.42400
N55         N  0.47601014  0.97267120  0.53270306     0.01200
C56         C  0.49624517  0.05863832  0.41189275    -0.06600
H57         H  0.50294214  0.94356724  0.39373055     0.06700
C58         C  0.58869884  0.94243365  0.45831805    -0.07000
Co59       Co  0.46515239  0.00525843  0.47778875     0.74200
N60         N  0.49099798  0.97209043  0.42876900    -0.26200
Co61       Co  0.52526379  0.00118691  0.43275676     0.74100
C62         C  0.57997157  0.92905921  0.43093677     0.42500
N63         N  0.56253385  0.96604395  0.52455058     0.00900
N64         N  0.55447648  0.96724726  0.43788839     0.01000
N65         N  0.45740230  0.06043865  0.44195620    -0.47000
H66         H  0.42111895  0.94941468  0.49693110     0.06700
N67         N  0.46806706  0.97349673  0.44590680     0.01300
N68         N  0.55937095  0.03025405  0.43818118     0.01000
C69         C  0.58995289  0.06467509  0.43199662     0.42600
N70         N  0.53963922  0.96755424  0.54174288    -0.25600
C71         C  0.44820398  0.06147831  0.51065133    -0.06500
N72         N  0.46847798  0.95201523  0.55114710    -0.46700
N73         N  0.56673465  0.05135803  0.42014679    -0.47700
C74         C  0.45774544  0.07602749  0.53705561     0.42400
N75         N  0.47290970  0.03666969  0.44625948     0.01200
N76         N  0.54418507  0.03058266  0.54209363    -0.25600
N77         N  0.45883657  0.97397021  0.50981826    -0.26100
N78         N  0.56716091  0.02939316  0.52502654     0.00900
H79         H  0.53147381  0.05907265  0.57679556     0.06800
H80         H  0.61351341  0.05380491  0.47488583     0.06800
N81         N  0.49585128  0.03519823  0.42916088    -0.26200
N82         N  0.57168007  0.96589600  0.46075840    -0.25800
N83         N  0.48094291  0.03593487  0.53261929     0.01200
C84         C  0.45954008  0.93736502  0.41804967     0.42600
C85         C  0.53980079  0.94452311  0.55958860    -0.07000
N86         N  0.57639672  0.02888115  0.46117357    -0.25800
H87         H  0.60518389  0.93586830  0.47370210     0.06800
N88         N  0.44866388  0.95310453  0.44023959    -0.47000
H89         H  0.52359978  0.93979220  0.57592986     0.06800
C90         C  0.57486251  0.06590934  0.55272871     0.42500
C91         C  0.43843101  0.95336199  0.51228640    -0.06500
Co92       Co  0.51006974  0.00164885  0.53803847     0.73800
N93         N  0.57859658  0.94273957  0.52943751    -0.46700
C94         C  0.47076476  0.07537462  0.42061150     0.42700
N95         N  0.47801400  0.05892138  0.54961159    -0.46700
Co96       Co  0.57020340  0.99751563  0.49301954     0.73900
C97         C  0.59650445  0.04978054  0.45921965    -0.07000
C98         C  0.48759725  0.94993764  0.41032569    -0.06600
N99         N  0.46389337  0.03705318  0.50963999    -0.26100
N100        N  0.55876512  0.94568231  0.41946094    -0.46900
H101        H  0.51279677  0.06367292  0.39600550     0.06800
C102        C  0.54712792  0.05280198  0.56046299    -0.07000
Cl103      Cl  0.51768208  0.00135265  0.48539915    -0.50000
C104        C  0.56566337  0.92806866  0.55125736     0.42500
H105        H  0.43263546  0.06835518  0.49448663     0.06700
N106        N  0.58610996  0.05028600  0.53057434    -0.46700
C107        C  0.94971644  0.57314692  0.53361770     0.42400
N108        N  0.98540302  0.54362379  0.52894047     0.01200
C109        C  0.07908148  0.52918941  0.41286270    -0.06600
H110        H  0.96709205  0.52271255  0.38695815     0.06700
C111        C  0.96270175  0.43297287  0.44816244    -0.07000
Co112      Co  0.02211010  0.55679568  0.47722927     0.74200
N113        N  0.99257967  0.53270587  0.42489297    -0.26200
Co114      Co  0.02169886  0.49849980  0.42967795     0.74100
C115        C  0.95142230  0.44199976  0.41992500     0.42500
N116        N  0.98049034  0.45757646  0.51685017     0.00900
N117        N  0.98790964  0.46860843  0.43094934     0.01000
N118        N  0.07913314  0.56693004  0.44428606    -0.47000
H119        H  0.96330017  0.59874724  0.49269412     0.06700
N120        N  0.99273099  0.55489990  0.44295994     0.01300
N121        N  0.05099562  0.46465699  0.43593445     0.01000
C122        C  0.08674579  0.43523538  0.43117859     0.42600
N123        N  0.98046005  0.47985079  0.53481480    -0.25600
C124        C  0.07396954  0.57470784  0.51671247    -0.06500
N125        N  0.96267591  0.54969012  0.54542940    -0.46700
N126        N  0.07365627  0.45860509  0.41933168    -0.46900
C127        C  0.08513554  0.56552468  0.54495927     0.42400
N128        N  0.05586891  0.55041587  0.44774698     0.01200
N129        N  0.04342344  0.47526251  0.54021260    -0.25600
N130        N  0.98823280  0.56166790  0.50687453    -0.26100
N131        N  0.04337475  0.45306213  0.52216475     0.00900
H132        H  0.06838923  0.48504014  0.57856016     0.06800
H133        H  0.07332393  0.40960782  0.47215321     0.06800
N134        N  0.05539767  0.52826095  0.42966174    -0.26200
N135        N  0.98525333  0.45061954  0.45307875    -0.25800
N136        N  0.04838902  0.53930292  0.53390956     0.01200
C137        C  0.95913805  0.56506319  0.41245632     0.42600
C138        C  0.95598452  0.47921564  0.55056165    -0.07000
N139        N  0.04832297  0.44665818  0.45806966    -0.25800
H140        H  0.95573852  0.41556835  0.46230148     0.06800
N141        N  0.97304464  0.57475451  0.43632034    -0.47000
H142        H  0.94990566  0.49474976  0.56705408     0.06800
C143        C  0.07638977  0.44260457  0.55321121     0.42500
C144        C  0.96667608  0.58127395  0.50800418    -0.06500
Co145      Co  0.01441797  0.50956803  0.53518203     0.73800
N146        N  0.95696301  0.44132473  0.51934620    -0.46700
C147        C  0.09481737  0.55476567  0.42268990     0.42700
N148        N  0.06815390  0.54355792  0.55432268    -0.46700
Co149      Co  0.01433834  0.45127959  0.48765068     0.73900
C150        C  0.06992875  0.42712952  0.45689393    -0.07000
C151        C  0.97207794  0.53717378  0.40473723    -0.06600
N152        N  0.05124380  0.55728018  0.51177528    -0.26100
N153        N  0.96822164  0.46409009  0.41049706    -0.46900
H154        H  0.08437521  0.51383065  0.39594062     0.06800
C155        C  0.06364051  0.47066966  0.56064087    -0.07000
Cl156      Cl  0.01815659  0.50404138  0.48244453    -0.50000
C157        C  0.94045997  0.45369755  0.54013098     0.42500
H158        H  0.08118336  0.59197177  0.50252651     0.06700
N159        N  0.06272422  0.43300594  0.52916864    -0.46700
C160        C  0.73392096  0.32398427  0.30444070     0.03000
C161        C  0.72328751  0.30057723  0.32086209    -0.13100
C162        C  0.69706790  0.28696306  0.31348445     0.00500
C163        C  0.68118641  0.29727822  0.28961120    -0.11600
C164        C  0.69126678  0.32077569  0.27311600     0.03000
C165        C  0.71778586  0.33390514  0.28047871    -0.11100
H166        H  0.73512048  0.29333995  0.33986470     0.08600
H167        H  0.66121969  0.28655529  0.28333107     0.06100
H168        H  0.72572636  0.35195908  0.26766265     0.06000
C169        C  0.74214973  0.68648564  0.29750234     0.03000
C170        C  0.72872114  0.70980190  0.31181275    -0.13100
C171        C  0.70158644  0.72010722  0.30250607     0.00500
C172        C  0.68823024  0.70746629  0.27831147    -0.11600
C173        C  0.70142186  0.68432095  0.26362535     0.03000
C174        C  0.72842862  0.67401052  0.27334532    -0.11100
H175        H  0.73871524  0.71907937  0.33096342     0.08600
H176        H  0.66759218  0.71592644  0.27078286     0.06100
H177        H  0.73857365  0.65581241  0.26246858     0.06000
C178        C  0.68107349  0.33929432  0.68344981     0.03000
C179        C  0.66956203  0.31328163  0.67270818    -0.13100
C180        C  0.68012446  0.30109656  0.64680488     0.00500
C181        C  0.70279620  0.31515404  0.63188388    -0.11600
C182        C  0.71479740  0.34095122  0.64273205     0.03000
C183        C  0.70363131  0.35293995  0.66834592    -0.11100
H184        H  0.65230233  0.30255407  0.68455776     0.08600
H185        H  0.71121182  0.30600815  0.61192688     0.06100
H186        H  0.71269650  0.37294472  0.67668880     0.06000
C187        C  0.34857054  0.71228512  0.30863765     0.03000
C188        C  0.35893426  0.70274805  0.28161529    -0.13100
C189        C  0.34628739  0.67876082  0.26784881     0.00500
C190        C  0.32313538  0.66425435  0.28123173    -0.11600
C191        C  0.31287282  0.67325162  0.30841758     0.03000
C192        C  0.32568281  0.69724378  0.32197086    -0.11100
H193        H  0.37636575  0.71437601  0.27090074     0.08600
H194        H  0.31377063  0.64533100  0.27091048     0.06100
H195        H  0.31773457  0.70426277  0.34296069     0.06000
C196        C  0.33812625  0.71849440  0.66121050     0.03000
C197        C  0.35398220  0.70662308  0.68438687    -0.13100
C198        C  0.34540164  0.68038236  0.69725228     0.00500
C199        C  0.32068303  0.66598101  0.68681590    -0.11600
C200        C  0.30468863  0.67745078  0.66353419     0.03000
C201        C  0.31350471  0.70378097  0.65096901    -0.11100
H202        H  0.37314893  0.71768891  0.69233277     0.08600
H203        H  0.31441018  0.64540047  0.69631730     0.06100
H204        H  0.30080191  0.71318186  0.63353307     0.06000
C205        C  0.34987517  0.33947352  0.68191852     0.03000
C206        C  0.36433636  0.31740495  0.66677226    -0.13100
C207        C  0.35148933  0.30429983  0.64247366     0.00500
C208        C  0.32392613  0.31371884  0.63325478    -0.11600
C209        C  0.30930622  0.33596508  0.64810899     0.03000
C210        C  0.32247044  0.34867993  0.67238855    -0.11100
H211        H  0.38512224  0.30962943  0.67462443     0.08600
H212        H  0.31407419  0.30408794  0.61421555     0.06100
H213        H  0.31122923  0.36570615  0.68408024     0.06000
C214        C  0.68258612  0.66040752  0.68589927     0.03000
C215        C  0.66560358  0.68269055  0.67376917    -0.13100
C216        C  0.67381309  0.69611609  0.64761904     0.00500
C217        C  0.69920615  0.68688931  0.63349401    -0.11600
C218        C  0.71643557  0.66467216  0.64523778     0.03000
C219        C  0.70800065  0.65157463  0.67147761    -0.11100
H220        H  0.64608143  0.68978757  0.68483605     0.08600
H221        H  0.70615484  0.69773940  0.61380133     0.06100
H222        H  0.72088983  0.63399718  0.68033922     0.06000
C223        C  0.35758723  0.29976729  0.31954263     0.03000
C224        C  0.36633380  0.31158018  0.29282030    -0.13100
C225        C  0.34908313  0.33219520  0.27841023     0.00500
C226        C  0.32288210  0.34109908  0.29131559    -0.11600
C227        C  0.31404409  0.32995314  0.31833079     0.03000
C228        C  0.33152340  0.30919839  0.33226406    -0.11100
H229        H  0.38691244  0.30498981  0.28349422     0.08600
H230        H  0.30892736  0.35627484  0.27999640     0.06100
H231        H  0.32482125  0.30029725  0.35299004     0.06000
C232        C  0.28024062  0.34599133  0.63857406    -0.03500
C233        C  0.27356685  0.37577311  0.63838482    -0.09200
C234        C  0.24604563  0.38533525  0.63003336    -0.16900
C235        C  0.22483778  0.36530393  0.62173528     0.25300
C236        C  0.23121084  0.33560996  0.62182480    -0.18500
C237        C  0.25878609  0.32597121  0.63019491    -0.07500
C238        C  0.19686196  0.37551413  0.61244006    -0.13900
C239        C  0.17428124  0.38557896  0.60391007    -0.13600
C240        C  0.14852090  0.39908277  0.59262473     0.25200
C241        C  0.13225640  0.38520194  0.57110041    -0.19000
C242        C  0.10840682  0.39923464  0.55864061    -0.07500
C243        C  0.10057755  0.42731421  0.56761763    -0.03600
C244        C  0.11663533  0.44084439  0.58971809    -0.08900
C245        C  0.14054433  0.42680945  0.60208344    -0.16500
H246        H  0.28975433  0.39171076  0.64438634     0.11600
H247        H  0.24136583  0.40837118  0.62986354     0.10900
H248        H  0.21490539  0.31994169  0.61540328     0.10800
H249        H  0.26321724  0.30290065  0.63050400     0.11400
H250        H  0.13831450  0.36376825  0.56358621     0.11400
H251        H  0.09634475  0.38827666  0.54172087     0.11400
H252        H  0.11119171  0.46247200  0.59703882     0.11500
H253        H  0.15310227  0.43777610  0.61864516     0.10400
C254        C  0.10943655  0.57808400  0.56160089    -0.03500
C255        C  0.12603764  0.60088747  0.54997740    -0.09200
C256        C  0.14925821  0.61242043  0.56565572    -0.16900
C257        C  0.15615320  0.60132785  0.59309002     0.25300
C258        C  0.13953311  0.57887977  0.60501065    -0.18500
C259        C  0.11628200  0.56729013  0.58934557    -0.07500
C260        C  0.18091487  0.61244887  0.60839707    -0.13900
C261        C  0.20243681  0.62224989  0.61949761    -0.13600
C262        C  0.22860750  0.63492671  0.63070651     0.25200
C263        C  0.23367713  0.63583922  0.66064141    -0.19000
C264        C  0.25866321  0.64929607  0.67137778    -0.07500
C265        C  0.27880368  0.66204387  0.65223762    -0.03600
C266        C  0.27374888  0.66048399  0.62216056    -0.08900
C267        C  0.24879624  0.64703071  0.61149557    -0.16500
H268        H  0.12132799  0.60970670  0.52871613     0.11600
H269        H  0.16203441  0.62978309  0.55624591     0.10900
H270        H  0.14472338  0.57014508  0.62623801     0.10800
H271        H  0.10379658  0.54978820  0.59885415     0.11400
H272        H  0.21814545  0.62652238  0.67567837     0.11400
H273        H  0.26187107  0.65036889  0.69464037     0.11400
H274        H  0.28911313  0.66965876  0.60688254     0.11500
H275        H  0.24511737  0.64629772  0.58827248     0.10400
C276        C  0.12230495  0.56636194  0.41118023    -0.03500
C277        C  0.13504527  0.59092593  0.42390928    -0.09200
C278        C  0.16067741  0.60244671  0.41252720    -0.16900
C279        C  0.17376442  0.58951463  0.38837649     0.25300
C280        C  0.16143469  0.56486632  0.37577748    -0.18500
C281        C  0.13584369  0.55328577  0.38714152    -0.07500
C282        C  0.19920391  0.60220820  0.37580403    -0.13900
C283        C  0.21975342  0.61362251  0.36450505    -0.13600
C284        C  0.24337489  0.62805989  0.35037744     0.25200
C285        C  0.24181288  0.63401068  0.32063648    -0.19000
C286        C  0.26450614  0.64863471  0.30688704    -0.07500
C287        C  0.28896245  0.65747379  0.32283544    -0.03600
C288        C  0.29036651  0.65129394  0.35271081    -0.08900
C289        C  0.26764819  0.63666840  0.36640956    -0.16500
H290        H  0.12509636  0.60134817  0.44248355     0.11600
H291        H  0.17009483  0.62160662  0.42233688     0.10900
H292        H  0.17140801  0.55481167  0.35699738     0.10800
H293        H  0.12659375  0.53435803  0.37684334     0.11400
H294        H  0.22297015  0.62752360  0.30813103     0.11400
H295        H  0.26275634  0.65343633  0.28393205     0.11400
H296        H  0.30914284  0.65754873  0.36540311     0.11500
H297        H  0.26898032  0.63212882  0.38945571     0.10400
C298        C  0.11300697  0.42127655  0.41915753    -0.03500
C299        C  0.12385892  0.39532843  0.43101866    -0.09200
C300        C  0.14840465  0.38204560  0.41897165    -0.16900
C301        C  0.16236349  0.39459919  0.39504545     0.25300
C302        C  0.15185555  0.42057545  0.38332372    -0.18500
C303        C  0.12732288  0.43383553  0.39527441    -0.07500
C304        C  0.18754804  0.38102698  0.38249962    -0.13900
C305        C  0.20897179  0.37078112  0.37148651    -0.13600
C306        C  0.23507653  0.36021569  0.35796266     0.25200
C307        C  0.25350725  0.37967168  0.34368445    -0.19000
C308        C  0.27912578  0.36978420  0.33080758    -0.07500
C309        C  0.28666708  0.34022669  0.33196601    -0.03600
C310        C  0.26794278  0.32076668  0.34630607    -0.08900
C311        C  0.24229009  0.33073753  0.35922241    -0.16500
H312        H  0.11332411  0.38515189  0.44939602     0.11600
H313        H  0.15643423  0.36198279  0.42825167     0.10900
H314        H  0.16257782  0.43054364  0.36489137     0.10800
H315        H  0.11954053  0.45389341  0.38578239     0.11400
H316        H  0.24816643  0.40254174  0.34266536     0.11400
H317        H  0.29327326  0.38536294  0.32031054     0.11400
H318        H  0.27296374  0.29783810  0.34725233     0.11500
H319        H  0.22811212  0.31548193  0.37018035     0.10400
C320        C  0.74340843  0.65546665  0.63020681    -0.03500
C321        C  0.76894458  0.65011170  0.64608670    -0.09200
C322        C  0.79440325  0.64167112  0.63187546    -0.16900
C323        C  0.79467760  0.63845902  0.60166506     0.25300
C324        C  0.76939201  0.64373907  0.58565632    -0.18500
C325        C  0.74390412  0.65223254  0.59982458    -0.07500
C326        C  0.82083454  0.62924412  0.58729695    -0.13900
C327        C  0.84309705  0.62066530  0.57653222    -0.13600
C328        C  0.86991367  0.60907043  0.56548930     0.25200
C329        C  0.88399455  0.62216749  0.54191431    -0.19000
C330        C  0.91014634  0.61066666  0.53145836    -0.07500
C331        C  0.92242421  0.58596677  0.54456439    -0.03600
C332        C  0.90815150  0.57308501  0.56829026    -0.08900
C333        C  0.88207151  0.58455598  0.57864464    -0.16500
H334        H  0.76931078  0.65280367  0.66943764     0.11600
H335        H  0.81388480  0.63763369  0.64445885     0.10900
H336        H  0.76934099  0.64116701  0.56227911     0.10800
H337        H  0.72447660  0.65591629  0.58707702     0.11400
H338        H  0.87476803  0.64120889  0.53162377     0.11400
H339        H  0.92064419  0.62107298  0.51318947     0.11400
H340        H  0.91705291  0.55401126  0.57878644     0.11500
H341        H  0.87137099  0.57427840  0.59691615     0.10400
C342        C  0.91163615  0.44313422  0.54899044    -0.03500
C343        C  0.89321251  0.46036802  0.56615871    -0.09200
C344        C  0.86601866  0.44993299  0.57467250    -0.16900
C345        C  0.85710077  0.42221342  0.56614193     0.25300
C346        C  0.87520112  0.40509034  0.54880619    -0.18500
C347        C  0.90229487  0.41552497  0.54015778    -0.07500
C348        C  0.83013638  0.41057788  0.57645487    -0.13900
C349        C  0.80876158  0.39940214  0.58644460    -0.13600
C350        C  0.78493496  0.38489171  0.60025050     0.25200
C351        C  0.76189398  0.37391287  0.58378041    -0.19000
C352        C  0.73912243  0.35921527  0.59748692    -0.07500
C353        C  0.73924430  0.35546967  0.62778660    -0.03600
C354        C  0.76263738  0.36641108  0.64405143    -0.08900
C355        C  0.78530500  0.38104502  0.63034727    -0.16500
H356        H  0.89974020  0.48184469  0.57301796     0.11600
H357        H  0.85214700  0.46328364  0.58817842     0.10900
H358        H  0.86852219  0.38352367  0.54227722     0.10800
H359        H  0.91608717  0.40184493  0.52691846     0.11400
H360        H  0.76153198  0.37672435  0.56043034     0.11400
H361        H  0.72121927  0.35122663  0.58452011     0.11400
H362        H  0.76348022  0.36346325  0.66736738     0.11500
H363        H  0.80319947  0.38925783  0.64322322     0.10400
C364        C  0.76155578  0.33826223  0.31284848    -0.03500
C365        C  0.78530904  0.32157664  0.32246776    -0.09200
C366        C  0.81074453  0.33502614  0.33201345    -0.16900
C367        C  0.81284565  0.36529122  0.33197454     0.25300
C368        C  0.78957924  0.38208576  0.32192419    -0.18500
C369        C  0.76408701  0.36867338  0.31237256    -0.07500
C370        C  0.83825218  0.37907651  0.34370751    -0.13900
C371        C  0.85884204  0.39025437  0.35530245    -0.13600
C372        C  0.88241986  0.40308103  0.37119130     0.25200
C373        C  0.89985656  0.42442749  0.35839411    -0.19000
C374        C  0.92228713  0.43725301  0.37433154    -0.07500
C375        C  0.92753849  0.42874361  0.40319493    -0.03600
C376        C  0.90992791  0.40726402  0.41582025    -0.08900
C377        C  0.88750930  0.39454426  0.39990107    -0.16500
H378        H  0.78416543  0.29811732  0.32272286     0.11600
H379        H  0.82861545  0.32182803  0.33980663     0.10900
H380        H  0.79092530  0.40554538  0.32200817     0.10800
H381        H  0.74606301  0.38211180  0.30544858     0.11400
H382        H  0.89604816  0.43122752  0.33619333     0.11400
H383        H  0.93555832  0.45371975  0.36406187     0.11400
H384        H  0.91328624  0.40034342  0.43801935     0.11500
H385        H  0.87405265  0.37812851  0.41003690     0.10400
C386        C  0.76959471  0.67398733  0.30873757    -0.03500
C387        C  0.77292742  0.64371805  0.31074655    -0.09200
C388        C  0.79834180  0.63174822  0.32212056    -0.16900
C389        C  0.82075672  0.64983975  0.33162107     0.25300
C390        C  0.81780640  0.67999022  0.32949292    -0.18500
C391        C  0.79233314  0.69203996  0.31813109    -0.07500
C392        C  0.84634217  0.63728977  0.34430084    -0.13900
C393        C  0.86693440  0.62570684  0.35550423    -0.13600
C394        C  0.89059115  0.61089955  0.36943057     0.25200
C395        C  0.90080637  0.62051382  0.39634839    -0.19000
C396        C  0.92324531  0.60559733  0.41030594    -0.07500
C397        C  0.93559210  0.58080675  0.39751667    -0.03600
C398        C  0.92525219  0.57133916  0.37044018    -0.08900
C399        C  0.90288431  0.58634981  0.35646527    -0.16500
H400        H  0.75559994  0.62928968  0.30412398     0.11600
H401        H  0.80036292  0.60839504  0.32383702     0.10900
H402        H  0.83507836  0.69416475  0.33681644     0.10800
H403        H  0.79041388  0.71540317  0.31660444     0.11400
H404        H  0.89131828  0.63942432  0.40661619     0.11400
H405        H  0.93076093  0.61331166  0.43119757     0.11400
H406        H  0.93443170  0.55241856  0.35997938     0.11500
H407        H  0.89506113  0.57871712  0.33565307     0.10400
C408        C  0.58753586  0.09273341  0.56467016    -0.03500
C409        C  0.57343819  0.10771383  0.58725217    -0.09200
C410        C  0.58492750  0.13358653  0.59794956    -0.16900
C411        C  0.61061119  0.14477044  0.58623661     0.25300
C412        C  0.62494662  0.12989458  0.56395105    -0.18500
C413        C  0.61347991  0.10398234  0.55319679    -0.07500
C414        C  0.62206279  0.17169110  0.59685416    -0.13900
C415        C  0.63176023  0.19432564  0.60548534    -0.13600
C416        C  0.64377291  0.22122668  0.61553386     0.25200
C417        C  0.67364492  0.22625223  0.61320376    -0.19000
C418        C  0.68549038  0.25227699  0.62319807    -0.07500
C419        C  0.66753868  0.27366457  0.63559182    -0.03600
C420        C  0.63745748  0.26845782  0.63758944    -0.08900
C421        C  0.62568764  0.24237099  0.62767847    -0.16500
H422        H  0.55345587  0.09966582  0.59661074     0.11600
H423        H  0.57369388  0.14494134  0.61521256     0.10900
H424        H  0.64486529  0.13842212  0.55476368     0.10800
H425        H  0.62474223  0.09291763  0.53578189     0.11400
H426        H  0.68780896  0.20996673  0.60385102     0.11400
H427        H  0.70875244  0.25541918  0.62170851     0.11400
H428        H  0.62297803  0.28464756  0.64657264     0.11500
H429        H  0.60249778  0.23871394  0.62945983     0.10400
C430        C  0.36643031  0.28003020  0.62756337    -0.03500
C431        C  0.39663795  0.28081697  0.62279610    -0.09200
C432        C  0.41084196  0.25720281  0.61010825    -0.16900
C433        C  0.39502307  0.23261072  0.60203916     0.25300
C434        C  0.36494927  0.23179733  0.60634371    -0.18500
C435        C  0.35071782  0.25534853  0.61900717    -0.07500
C436        C  0.40951425  0.20783978  0.58991237    -0.13900
C437        C  0.42012557  0.18608086  0.58011656    -0.13600
C438        C  0.43074552  0.15914281  0.56864375     0.25200
C439        C  0.41890972  0.14811783  0.54298461    -0.19000
C440        C  0.42789306  0.12116093  0.53253280    -0.07500
C441        C  0.44878479  0.10484733  0.54772051    -0.03600
C442        C  0.46094025  0.11628958  0.57324353    -0.08900
C443        C  0.45190358  0.14330505  0.58367660    -0.16500
H444        H  0.40923991  0.29966804  0.62889781     0.11600
H445        H  0.43414137  0.25803308  0.60680732     0.10900
H446        H  0.35255104  0.21279293  0.60025579     0.10800
H447        H  0.32753461  0.25394034  0.62279673     0.11400
H448        H  0.40246814  0.16019401  0.53124535     0.11400
H449        H  0.41820758  0.11309168  0.51274122     0.11400
H450        H  0.47719671  0.10425967  0.58526492     0.11500
H451        H  0.46113786  0.15166190  0.60361219     0.10400
C452        C  0.46219919  0.10468125  0.41118140    -0.03500
C453        C  0.44137615  0.12023245  0.42718854    -0.09200
C454        C  0.43291590  0.14794813  0.41840545    -0.16900
C455        C  0.44508436  0.16036685  0.39351058     0.25300
C456        C  0.46601495  0.14514712  0.37754668    -0.18500
C457        C  0.47465029  0.11743505  0.38640419    -0.07500
C458        C  0.43452465  0.18782186  0.38331022    -0.13900
C459        C  0.42352252  0.20943412  0.37362589    -0.13600
C460        C  0.40827203  0.23304742  0.36020775     0.25200
C461        C  0.40321485  0.23234936  0.33029511    -0.19000
C462        C  0.38692810  0.25420661  0.31710203    -0.07500
C463        C  0.37541324  0.27705379  0.33371317    -0.03600
C464        C  0.38071093  0.27770343  0.36379294    -0.08900
C465        C  0.39710216  0.25578055  0.37697350    -0.16500
H466        H  0.43158962  0.11097295  0.44647215     0.11600
H467        H  0.41656132  0.15949978  0.43077212     0.10900
H468        H  0.47532096  0.15450635  0.35806802     0.10800
H469        H  0.49064941  0.10589574  0.37363686     0.11400
H470        H  0.41150793  0.21464787  0.31721418     0.11400
H471        H  0.38281251  0.25293602  0.29399047     0.11400
H472        H  0.37227285  0.29518834  0.37703779     0.11500
H473        H  0.40078381  0.25638496  0.40019590     0.10400
C474        C  0.68643429  0.26167807  0.33032820    -0.03500
C475        C  0.70587517  0.24006839  0.33979451    -0.09200
C476        C  0.69560331  0.21544338  0.35421461    -0.16900
C477        C  0.66583014  0.21216815  0.35933300     0.25300
C478        C  0.64640280  0.23379433  0.35055725    -0.18500
C479        C  0.65661218  0.25844325  0.33620825    -0.07500
C480        C  0.65498482  0.18625398  0.37275632    -0.13900
C481        C  0.64485048  0.16460175  0.38324550    -0.13600
C482        C  0.63162633  0.13909097  0.39522395     0.25200
C483        C  0.60832503  0.12603107  0.38081605    -0.19000
C484        C  0.59488845  0.10164558  0.39276157    -0.07500
C485        C  0.60465006  0.09007260  0.41927008    -0.03600
C486        C  0.62821443  0.10320357  0.43350022    -0.08900
C487        C  0.64162239  0.12761246  0.42151302    -0.16500
H488        H  0.72891476  0.24179153  0.33531466     0.11600
H489        H  0.71078474  0.19876416  0.36090136     0.10900
H490        H  0.62330551  0.23145837  0.35453281     0.10800
H491        H  0.64118081  0.27492244  0.32963877     0.11400
H492        H  0.60042237  0.13481334  0.36045533     0.11400
H493        H  0.57676562  0.09196727  0.38134455     0.11400
H494        H  0.63621583  0.09481345  0.45394883     0.11500
H495        H  0.65963311  0.13763318  0.43282017     0.10400
C496        C  0.42931089  0.91482484  0.55394833    -0.03500
C497        C  0.44008790  0.90304524  0.57996898    -0.09200
C498        C  0.42559131  0.88026115  0.59366028    -0.16900
C499        C  0.40015420  0.86899688  0.58156097     0.25300
C500        C  0.38911844  0.88068251  0.55574649    -0.18500
C501        C  0.40363988  0.90351282  0.54196481    -0.07500
C502        C  0.38613531  0.84477444  0.59525520    -0.13900
C503        C  0.37607410  0.82370496  0.60697206    -0.13600
C504        C  0.36570997  0.79773209  0.62072222     0.25200
C505        C  0.35615457  0.77451824  0.60372758    -0.19000
C506        C  0.34705709  0.74880780  0.61693194    -0.07500
C507        C  0.34746333  0.74598368  0.64734549    -0.03600
C508        C  0.35704277  0.76948030  0.66427874    -0.08900
C509        C  0.36611786  0.79521413  0.65100721    -0.16500
H510        H  0.45983836  0.91131317  0.58967453     0.11600
H511        H  0.43435831  0.87126723  0.61356745     0.10900
H512        H  0.36946855  0.87201491  0.54618204     0.10800
H513        H  0.39479026  0.91219645  0.52199271     0.11400
H514        H  0.35600880  0.77618637  0.58025773     0.11400
H515        H  0.34019469  0.73093540  0.60333559     0.11400
H516        H  0.35730596  0.76801437  0.68774724     0.11500
H517        H  0.37358543  0.81306636  0.66433476     0.10400
C518        C  0.57551518  0.89955934  0.56209901    -0.03500
C519        C  0.59875621  0.88530258  0.54833329    -0.09200
C520        C  0.60794825  0.85807507  0.55798486    -0.16900
C521        C  0.59410416  0.84479601  0.58154040     0.25300
C522        C  0.57104894  0.85888232  0.59551043    -0.18500
C523        C  0.56174553  0.88612734  0.58581965    -0.07500
C524        C  0.60419364  0.81710909  0.59180914    -0.13900
C525        C  0.61397266  0.79458886  0.60081973    -0.13600
C526        C  0.62725790  0.76889288  0.61253482     0.25200
C527        C  0.63154075  0.76650853  0.64250759    -0.19000
C528        C  0.64610763  0.74251241  0.65398457    -0.07500
C529        C  0.65665462  0.72058262  0.63557315    -0.03600
C530        C  0.65177127  0.72289213  0.60548375    -0.08900
C531        C  0.63717377  0.74693812  0.59404305    -0.16500
H532        H  0.60974332  0.89510954  0.52999301     0.11600
H533        H  0.62590823  0.84742191  0.54712328     0.10900
H534        H  0.56033342  0.84885779  0.61389946     0.10800
H535        H  0.54388690  0.89661220  0.59692963     0.11400
H536        H  0.62411796  0.78349468  0.65697208     0.11400
H537        H  0.64990414  0.74156077  0.67716637     0.11400
H538        H  0.65938671  0.70618264  0.59081745     0.11500
H539        H  0.63400161  0.74860435  0.57079083     0.10400
C540        C  0.59257179  0.90342838  0.41659243    -0.03500
C541        C  0.61760404  0.89007748  0.42783174    -0.09200
C542        C  0.62997511  0.86636199  0.41363303    -0.16900
C543        C  0.61739624  0.85567784  0.38817580     0.25300
C544        C  0.59232049  0.86866048  0.37694402    -0.18500
C545        C  0.57995063  0.89245744  0.39107281    -0.07500
C546        C  0.63058074  0.83165523  0.37344749    -0.13900
C547        C  0.64250158  0.81181975  0.36139280    -0.13600
C548        C  0.65745688  0.78856645  0.34711901     0.25200
C549        C  0.64262711  0.76304661  0.34017532    -0.19000
C550        C  0.65710565  0.74063265  0.32583910    -0.07500
C551        C  0.68660771  0.74352174  0.31843205    -0.03600
C552        C  0.70145613  0.76904202  0.32585525    -0.08900
C553        C  0.68688586  0.79151849  0.34004429    -0.16500
H554        H  0.62787789  0.89808962  0.44735660     0.11600
H555        H  0.64943807  0.85646187  0.42241357     0.10900
H556        H  0.58245358  0.86051301  0.35721916     0.10800
H557        H  0.56061224  0.90231859  0.38199555     0.11400
H558        H  0.61987656  0.76053810  0.34570934     0.11400
H559        H  0.64533195  0.72099174  0.32061129     0.11400
H560        H  0.72413304  0.77177560  0.32017737     0.11500
H561        H  0.69850183  0.81123638  0.34535258     0.10400
C562        C  0.44570680  0.91131369  0.40576042    -0.03500
C563        C  0.41756060  0.90328453  0.41447862    -0.09200
C564        C  0.40468163  0.87822946  0.40332233    -0.16900
C565        C  0.41986075  0.86096552  0.38347230     0.25300
C566        C  0.44779779  0.86888992  0.37458066    -0.18500
C567        C  0.46066773  0.89394641  0.38562357    -0.07500
C568        C  0.40695505  0.83501545  0.37223195    -0.13900
C569        C  0.39676260  0.81322127  0.36219919    -0.13600
C570        C  0.38484388  0.78752173  0.34941645     0.25200
C571        C  0.40310482  0.76759352  0.33555419    -0.19000
C572        C  0.39138553  0.74300398  0.32232280    -0.07500
C573        C  0.36122335  0.73815605  0.32281624    -0.03600
C574        C  0.34310170  0.75829298  0.33693933    -0.08900
C575        C  0.35487134  0.78278906  0.35020396    -0.16500
H576        H  0.40556257  0.91630328  0.42994110     0.11600
H577        H  0.38299739  0.87225800  0.41026967     0.10900
H578        H  0.45968349  0.85563044  0.35921774     0.10800
H579        H  0.48239822  0.89944878  0.37858469     0.11400
H580        H  0.42637369  0.77112153  0.33488214     0.11400
H581        H  0.40589278  0.72769262  0.31194697     0.11400
H582        H  0.31976053  0.75538217  0.33729556     0.11500
H583        H  0.34057829  0.79818650  0.36078269     0.10400
C584        C  0.57615153  0.41598189  0.08285196    -0.03500
C585        C  0.59968347  0.42838356  0.09776249    -0.09200
C586        C  0.61074486  0.41516757  0.12272633    -0.16900
C587        C  0.59851040  0.38937904  0.13307594     0.25300
C588        C  0.57473518  0.37710786  0.11867649    -0.18500
C589        C  0.56354002  0.39038118  0.09371420    -0.07500
C590        C  0.61123422  0.37516390  0.15782052    -0.13900
C591        C  0.62378529  0.36420268  0.17801037    -0.13600
C592        C  0.64048390  0.35240332  0.20163479     0.25200
C593        C  0.62720819  0.34653314  0.22833511    -0.19000
C594        C  0.64374770  0.33610149  0.25155485    -0.07500
C595        C  0.67381807  0.33160464  0.24836676    -0.03600
C596        C  0.68696209  0.33740618  0.22144053    -0.08900
C597        C  0.67034965  0.34766937  0.19818404    -0.16500
H598        H  0.60969835  0.44817189  0.09000756     0.11600
H599        H  0.62913011  0.42485977  0.13373006     0.10900
H600        H  0.56512380  0.35713606  0.12649209     0.10800
H601        H  0.54540431  0.38031438  0.08272376     0.11400
H602        H  0.60414183  0.35025769  0.23128390     0.11400
H603        H  0.63316237  0.33199098  0.27215836     0.11400
H604        H  0.71001757  0.33378970  0.21835638     0.11500
H605        H  0.68082479  0.35213452  0.17759265     0.10400
C606        C  0.68650033  0.67015307  0.23892365    -0.03500
C607        C  0.70244470  0.66012360  0.21487016    -0.09200
C608        C  0.68852928  0.64546388  0.19234208    -0.16900
C609        C  0.65854124  0.64082926  0.19349758     0.25300
C610        C  0.64236156  0.65122680  0.21697615    -0.18500
C611        C  0.65624152  0.66574879  0.23961590    -0.07500
C612        C  0.64450344  0.62488774  0.17083181    -0.13900
C613        C  0.63308905  0.61134150  0.15171896    -0.13600
C614        C  0.61972039  0.59564083  0.12848536     0.25200
C615        C  0.59527735  0.60716213  0.11466657    -0.19000
C616        C  0.58275138  0.59247000  0.09139037    -0.07500
C617        C  0.59456894  0.56606556  0.08170230    -0.03600
C618        C  0.61891488  0.55441721  0.09594939    -0.08900
C619        C  0.63145941  0.56920091  0.11924387    -0.16500
H620        H  0.72566568  0.66360876  0.21345682     0.11600
H621        H  0.70117184  0.63757770  0.17413390     0.10900
H622        H  0.61910684  0.64769788  0.21801029     0.10800
H623        H  0.64339468  0.67281960  0.25799366     0.11400
H624        H  0.58606492  0.62762315  0.12170903     0.11400
H625        H  0.56394689  0.60189458  0.08084816     0.11400
H626        H  0.62848615  0.53414669  0.08894863     0.11500
H627        H  0.65042454  0.56017230  0.12985812     0.10400
C628        C  0.44551855  0.58075472  0.07209821    -0.03500
C629        C  0.41739290  0.57208336  0.08016596    -0.09200
C630        C  0.40259945  0.58676238  0.10214715    -0.16900
C631        C  0.41581025  0.61015657  0.11618377     0.25300
C632        C  0.44374765  0.61897294  0.10823970    -0.18500
C633        C  0.45857251  0.60434150  0.08629522    -0.07500
C634        C  0.40138569  0.62421148  0.13979049    -0.13900
C635        C  0.39062397  0.63511737  0.16085582    -0.13600
C636        C  0.37939921  0.64697855  0.18725060     0.25200
C637        C  0.39848011  0.65364840  0.20988499    -0.19000
C638        C  0.38769390  0.66439358  0.23604021    -0.07500
C639        C  0.35767829  0.66836470  0.23980981    -0.03600
C640        C  0.33863513  0.66164992  0.21694402    -0.08900
C641        C  0.34949101  0.65105294  0.19071102    -0.16500
H642        H  0.40687850  0.55397085  0.06955732     0.11600
H643        H  0.38102183  0.57971582  0.10837448     0.10900
H644        H  0.45416734  0.63694839  0.11919742     0.10800
H645        H  0.48021402  0.61150363  0.08062131     0.11400
H646        H  0.42166099  0.65030439  0.20739487     0.11400
H647        H  0.40269515  0.66906413  0.25352500     0.11400
H648        H  0.31542049  0.66469617  0.21938689     0.11500
H649        H  0.33461005  0.64584143  0.17326928     0.10400
C650        C  0.35827956  0.34426892  0.24985721    -0.03500
C651        C  0.35295110  0.37355085  0.24290774    -0.09200
C652        C  0.36128572  0.38481316  0.21596835    -0.16900
C653        C  0.37520279  0.36707247  0.19562766     0.25300
C654        C  0.38078474  0.33798487  0.20234052    -0.18500
C655        C  0.37233247  0.32661685  0.22921385    -0.07500
C656        C  0.38431422  0.37891534  0.16815017    -0.13900
C657        C  0.39284056  0.38920810  0.14561538    -0.13600
C658        C  0.40454930  0.40180625  0.11948637     0.25200
C659        C  0.42689834  0.38762173  0.10456772    -0.19000
C660        C  0.43967352  0.40060839  0.08028489    -0.07500
C661        C  0.43027366  0.42800572  0.07059906    -0.03600
C662        C  0.40735665  0.44184411  0.08529701    -0.08900
C663        C  0.39461129  0.42880907  0.10964602    -0.16500
H664        H  0.34267864  0.38789714  0.25843119     0.11600
H665        H  0.35705534  0.40742074  0.21108763     0.10900
H666        H  0.39161233  0.32406304  0.18677436     0.10800
H667        H  0.37642424  0.30390742  0.23362612     0.11400
H668        H  0.43478840  0.36674343  0.11198998     0.11400
H669        H  0.45721767  0.38937423  0.06935390     0.11400
H670        H  0.39960177  0.46289486  0.07835926     0.11500
H671        H  0.37734298  0.44000252  0.12106661     0.10400
C672        C  0.60276580  0.56211834  0.89298094    -0.03500
C673        C  0.59073673  0.58680638  0.87966191    -0.09200
C674        C  0.60288703  0.59800070  0.85421692    -0.16900
C675        C  0.62723031  0.58472752  0.84177162     0.25300
C676        C  0.63936825  0.56010725  0.85485146    -0.18500
C677        C  0.62718934  0.54882189  0.88032043    -0.07500
C678        C  0.63938356  0.59635446  0.81542377    -0.13900
C679        C  0.64818247  0.60687052  0.79311111    -0.13600
C680        C  0.65703251  0.62004852  0.76617897     0.25200
C681        C  0.68623545  0.62691877  0.76123127    -0.19000
C682        C  0.69459300  0.63998902  0.73509627    -0.07500
C683        C  0.67380546  0.64640762  0.71361127    -0.03600
C684        C  0.64452027  0.63940616  0.71882788    -0.08900
C685        C  0.63623053  0.62631693  0.74493048    -0.16500
H686        H  0.57184257  0.59741650  0.88883530     0.11600
H687        H  0.59325317  0.61699576  0.84421357     0.10900
H688        H  0.65817381  0.54962300  0.84535234     0.10800
H689        H  0.63693507  0.52976904  0.89003633     0.11400
H690        H  0.70249605  0.62229152  0.77758715     0.11400
H691        H  0.71724720  0.64545700  0.73184914     0.11400
H692        H  0.62808445  0.64374166  0.70258596     0.11500
H693        H  0.61356150  0.62106906  0.74853720     0.10400
C694        C  0.58841042  0.42469791  0.88951959    -0.03500
C695        C  0.61595878  0.43520316  0.88152222    -0.09200
C696        C  0.62856581  0.42679891  0.85527910    -0.16900
C697        C  0.61371395  0.40793395  0.83677755     0.25300
C698        C  0.58619489  0.39758030  0.84443922    -0.18500
C699        C  0.57357214  0.40590204  0.87070581    -0.07500
C700        C  0.62689454  0.39856743  0.81021673    -0.13900
C701        C  0.63733411  0.38941036  0.78813679    -0.13600
C702        C  0.64883298  0.37703203  0.76204014     0.25200
C703        C  0.65369372  0.34712011  0.76051284    -0.19000
C704        C  0.66410735  0.33476554  0.73489396    -0.07500
C705        C  0.66976777  0.35226616  0.71053898    -0.03600
C706        C  0.66490997  0.38235017  0.71232881    -0.08900
C707        C  0.65449350  0.39465704  0.73797616    -0.16500
H708        H  0.62780257  0.44982151  0.89557987     0.11600
H709        H  0.64990297  0.43488371  0.84949663     0.10900
H710        H  0.57457612  0.38296085  0.83018412     0.10800
H711        H  0.55225902  0.39764737  0.87616960     0.11400
H712        H  0.64936137  0.33334847  0.77910123     0.11400
H713        H  0.66805479  0.31161407  0.73421955     0.11400
H714        H  0.66880542  0.39627667  0.69377605     0.11500
H715        H  0.65065035  0.41782713  0.73896674     0.10400
C716        C  0.36294333  0.35244321  0.70817400    -0.03500
C717        C  0.39262027  0.35962268  0.70882302    -0.09200
C718        C  0.40472840  0.37212814  0.73361347    -0.16900
C719        C  0.38730711  0.37750823  0.75791424     0.25300
C720        C  0.35782503  0.37032807  0.75751333    -0.18500
C721        C  0.34569239  0.35782731  0.73280023    -0.07500
C722        C  0.39963102  0.39016231  0.78343825    -0.13900
C723        C  0.40947747  0.40043145  0.80525613    -0.13600
C724        C  0.42093305  0.41223381  0.83157892     0.25200
C725        C  0.40958540  0.43804992  0.84275068    -0.19000
C726        C  0.42064466  0.44945042  0.86851153    -0.07500
C727        C  0.44313777  0.43505080  0.88332719    -0.03600
C728        C  0.45438690  0.40912009  0.87193156    -0.08900
C729        C  0.44330212  0.39776836  0.84616109    -0.16500
H730        H  0.40631310  0.35592763  0.69005709     0.11600
H731        H  0.42760937  0.37764629  0.73381560     0.10900
H732        H  0.34425326  0.37429727  0.77632684     0.10800
H733        H  0.32288510  0.35206886  0.73305776     0.11400
H734        H  0.39220639  0.44932679  0.83157618     0.11400
H735        H  0.41151311  0.46945738  0.87673626     0.11400
H736        H  0.47173866  0.39763345  0.88290952     0.11500
H737        H  0.45214937  0.37772231  0.83762264     0.10400
C738        C  0.45800902  0.58135712  0.88717603    -0.03500
C739        C  0.47003688  0.60747490  0.87689273    -0.09200
C740        C  0.45870599  0.62090572  0.85208223    -0.16900
C741        C  0.43539305  0.60826091  0.83726076     0.25300
C742        C  0.42343912  0.58223129  0.84731434    -0.18500
C743        C  0.43461745  0.56887241  0.87213940    -0.07500
C744        C  0.42315064  0.62205427  0.81206438    -0.13900
C745        C  0.41108512  0.63261522  0.79138838    -0.13600
C746        C  0.39476144  0.64445210  0.76755295     0.25200
C747        C  0.36448103  0.64643806  0.76961033    -0.19000
C748        C  0.34837982  0.65798186  0.74663881    -0.07500
C749        C  0.36243748  0.66784071  0.72141192    -0.03600
C750        C  0.39284792  0.66566870  0.71942585    -0.08900
C751        C  0.40891487  0.65392171  0.74236403    -0.16500
H752        H  0.48795744  0.61769360  0.88810322     0.11600
H753        H  0.46801878  0.64112735  0.84455544     0.10900
H754        H  0.40535469  0.57230825  0.83602356     0.10800
H755        H  0.42500120  0.54874694  0.87951993     0.11400
H756        H  0.35333265  0.63913438  0.78900561     0.11400
H757        H  0.32498619  0.65960042  0.74871307     0.11400
H758        H  0.40409523  0.67280852  0.70003674     0.11500
H759        H  0.43233117  0.65229476  0.74048705     0.10400
loop_ 
_geom_bond_atom_site_label_1 
_geom_bond_atom_site_label_2 
_geom_bond_distance 
_geom_bond_site_symmetry_2 
_ccdc_geom_bond_type 
C1           N19   1.351       .  A
C1           C38   1.459       .  S
C1          C738   1.476       .  S
N2           N19   1.324       .  A
N2           N24   1.319       .  A
N2          Co39   2.089       .  S
C3           N28   1.341       .  A
C3           C41   1.462       .  S
C3           H48   1.081       .  S
H4           C45   1.081       .  S
C5           N29   1.341       .  A
C5            C9   1.461       .  S
C5           H34   1.081       .  S
Co6          N24   2.075       .  S
Co6          N14   2.080       .  S
Co6          N46   2.072   1_556  S
Co6          N22   2.074   1_556  S
Co6         Cl50   2.445       .  S
N7           C45   1.341       .  A
N7           N14   1.319       .  A
N7           Co8   2.085       .  S
Co8          N11   2.072       .  S
Co8          N28   2.078   1_556  S
Co8          N15   2.085   1_556  S
Co8         Cl50   2.453       .  S
C9           N47   1.347       .  A
C9          C694   1.472       .  S
N10          N17   1.319       .  A
N10          N40   1.323       .  A
N10         Co43   2.083       .  S
N11          N29   1.319       .  A
N11          N47   1.321       .  A
N12          C41   1.347       .  A
N12          N22   1.321       .  A
H13          C38   1.081       .  S
N14          N35   1.323       .  A
N15          N33   1.320       .  A
N15          N20   1.324       .  A
C16          N20   1.350       .  A
C16          C44   1.461       .  S
C16         C584   1.477       .  S
N17          C32   1.337       .  A
N17         Co39   2.070       .  S
C18          N46   1.336       .  A
C18          C21   1.458       .  S
C18          H52   1.081       .  S
C21          N42   1.349       .  A
C21         C628   1.469       .  S
N22          N28   1.318       .  A
N23          C49   1.343       .  A
N23          N25   1.320       .  A
N23         Co39   2.091   1_554  S
N24          C38   1.340       .  A
N25          N53   1.323       .  A
N25         Co43   2.080   1_554  S
H26          C49   1.081       .  S
H27          C44   1.081       .  S
N29         Co43   2.081       .  S
N30          N42   1.322       .  A
N30          N46   1.319       .  A
N30         Co39   2.076   1_554  S
C31          N35   1.350       .  A
C31          C45   1.461       .  S
C31         C672   1.477       .  S
C32          C51   1.457       .  S
C32          H36   1.081       .  S
N33          C44   1.341       .  A
N33         Co43   2.086   1_554  S
C37          N53   1.349       .  A
C37          C49   1.465       .  S
C37         C661   1.479       .  S
Co39        Cl50   2.450       .  S
N40          C51   1.350       .  A
C41         C617   1.472       .  S
Co43        Cl50   2.448       .  S
C51         C727   1.471       .  S
C54          N72   1.348       .  A
C54          C91   1.462       .  S
C54         C496   1.474       .  S
N55          N72   1.322       .  A
N55          N77   1.319       .  A
N55         Co92   2.076   1_565  S
C56          N81   1.341       .  A
C56          C94   1.460       .  S
C56         H101   1.081       .  S
H57          C98   1.081       .  S
C58          N82   1.340       .  A
C58          C62   1.461       .  S
C58          H87   1.081       .  S
Co59         N77   2.082   1_545  S
Co59         N67   2.079   1_545  S
Co59         N99   2.076       .  S
Co59         N75   2.080       .  S
Co59       Cl103   2.450       .  S
N60          C98   1.338       .  A
N60          N67   1.319       .  A
N60         Co61   2.080   1_565  S
Co61         N64   2.075   1_545  S
Co61         N81   2.077       .  S
Co61         N68   2.080       .  S
Co61       Cl103   2.449       .  S
C62         N100   1.348       .  A
C62         C540   1.473       .  S
N63          N70   1.319       .  A
N63          N93   1.323       .  A
N63         Co96   2.082       .  S
N64          N82   1.319       .  A
N64         N100   1.323       .  A
N65          C94   1.348       .  A
N65          N75   1.322       .  A
H66          C91   1.081       .  S
N67          N88   1.324       .  A
N68          N86   1.319       .  A
N68          N73   1.323       .  A
C69          N73   1.349       .  A
C69          C97   1.460       .  S
C69         C485   1.473       .  S
N70          C85   1.342       .  A
N70         Co92   2.085   1_565  S
C71          N99   1.338       .  A
C71          C74   1.458       .  S
C71         H105   1.081       .  S
C74          N95   1.351       .  A
C74         C441   1.475       .  S
N75          N81   1.319       .  A
N76         C102   1.336       .  A
N76          N78   1.318       .  A
N76         Co92   2.070       .  S
N77          C91   1.341       .  A
N78         N106   1.325       .  A
N78         Co96   2.087   1_545  S
H79         C102   1.081       .  S
H80          C97   1.081       .  S
N82         Co96   2.084       .  S
N83          N95   1.325       .  A
N83          N99   1.319       .  A
N83         Co92   2.086       .  S
C84          N88   1.350       .  A
C84          C98   1.460       .  S
C84         C562   1.474       .  S
C85         C104   1.462       .  S
C85          H89   1.081       .  S
N86          C97   1.339       .  A
N86         Co96   2.078   1_545  S
C90         N106   1.352       .  A
C90         C102   1.457       .  S
C90         C408   1.475       .  S
Co92       Cl103   2.449       .  S
N93         C104   1.349       .  A
C94         C452   1.472       .  S
Co96       Cl103   2.449   1_565  S
C104        C518   1.476       .  S
C107        N125   1.349       .  A
C107        C144   1.463       .  S
C107        C331   1.476       .  S
N108        N125   1.322       .  A
N108        N130   1.319       .  A
N108       Co145   2.080   1_655  S
C109        N134   1.337       .  A
C109        C147   1.457       .  S
C109        H154   1.081       .  S
H110        C151   1.081       .  S
C111        N135   1.339       .  A
C111        C115   1.460       .  S
C111        H140   1.081       .  S
Co112       N130   2.084   1_455  S
Co112       N120   2.081   1_455  S
Co112       N152   2.082       .  S
Co112       N128   2.084       .  S
Co112      Cl156   2.450       .  S
N113        C151   1.340       .  A
N113        N120   1.320       .  A
N113       Co114   2.080   1_655  S
Co114       N117   2.080   1_455  S
Co114       N134   2.072       .  S
Co114       N121   2.081       .  S
Co114      Cl156   2.449       .  S
C115        N153   1.350       .  A
C115        C375   1.476       .  S
N116        N123   1.319       .  A
N116        N146   1.322       .  A
N116       Co149   2.078   1_655  S
N117        N135   1.319       .  A
N117        N153   1.324       .  A
N118        C147   1.351       .  A
N118        N128   1.324       .  A
H119        C144   1.081       .  S
N120        N141   1.323       .  A
N121        N139   1.319       .  A
N121        N126   1.323       .  A
C122        N126   1.349       .  A
C122        C150   1.463       .  S
C122        C298   1.477       .  S
N123        C138   1.340       .  A
N123       Co145   2.079   1_655  S
C124        N152   1.339       .  A
C124        C127   1.461       .  S
C124        H158   1.081       .  S
C127        N148   1.350       .  A
C127        C254   1.476       .  S
N128        N134   1.319       .  A
N129        C155   1.340       .  A
N129        N131   1.319       .  A
N129       Co145   2.081       .  S
N130        C144   1.343       .  A
N131        N159   1.323       .  A
N131       Co149   2.079       .  S
H132        C155   1.081       .  S
H133        C150   1.081       .  S
N135       Co149   2.081   1_655  S
N136        N148   1.324       .  A
N136        N152   1.319       .  A
N136       Co145   2.081       .  S
C137        N141   1.349       .  A
C137        C151   1.461       .  S
C137        C397   1.474       .  S
C138        C157   1.459       .  S
C138        H142   1.081       .  S
N139        C150   1.342       .  A
N139       Co149   2.085       .  S
C143        N159   1.349       .  A
C143        C155   1.461       .  S
C143        C243   1.475       .  S
Co145      Cl156   2.448       .  S
N146        C157   1.348       .  A
C147        C276   1.472       .  S
Co149      Cl156   2.450       .  S
C157        C342   1.471       .  S
C160        C364   1.485       .  S
C160        C161   1.405       .  A
C160        C165   1.406       .  A
C161        H166   1.083       .  S
C161        C162   1.403       .  A
C162        C474   1.483       .  S
C162        C163   1.403       .  A
C163        H167   1.084       .  S
C163        C164   1.401       .  A
C164        C595   1.481       .  S
C164        C165   1.405       .  A
C165        H168   1.083       .  S
C169        C386   1.481       .  S
C169        C170   1.404       .  A
C169        C174   1.404       .  A
C170        H175   1.084       .  S
C170        C171   1.403       .  A
C171        C551   1.476       .  S
C171        C172   1.401       .  A
C172        H176   1.084       .  S
C172        C173   1.402       .  A
C173        C606   1.482       .  S
C173        C174   1.404       .  A
C174        H177   1.083       .  S
C178        C705   1.478       .  S
C178        C179   1.402       .  A
C178        C183   1.399       .  A
C179        H184   1.083       .  S
C179        C180   1.405       .  A
C180        C419   1.485       .  S
C180        C181   1.407       .  A
C181        H185   1.083       .  S
C181        C182   1.404       .  A
C182        C353   1.479       .  S
C182        C183   1.400       .  A
C183        H186   1.084       .  S
C187        C573   1.480       .  S
C187        C188   1.403       .  A
C187        C192   1.402       .  A
C188        H193   1.084       .  S
C188        C189   1.403       .  A
C189        C639   1.474       .  S
C189        C190   1.401       .  A
C190        H194   1.084       .  S
C190        C191   1.401       .  A
C191        C287   1.477       .  S
C191        C192   1.401       .  A
C192        H195   1.083       .  S
C196        C507   1.482       .  S
C196        C197   1.404       .  A
C196        C201   1.403       .  A
C197        H202   1.084       .  S
C197        C198   1.403       .  A
C198        C749   1.478       .  S
C198        C199   1.403       .  A
C199        H203   1.084       .  S
C199        C200   1.404       .  A
C200        C265   1.483       .  S
C200        C201   1.404       .  A
C201        H204   1.083       .  S
C205        C716   1.478       .  S
C205        C206   1.402       .  A
C205        C210   1.401       .  A
C206        H211   1.084       .  S
C206        C207   1.404       .  A
C207        C430   1.482       .  S
C207        C208   1.406       .  A
C208        H212   1.083       .  S
C208        C209   1.404       .  A
C209        C232   1.482       .  S
C209        C210   1.402       .  A
C210        H213   1.083       .  S
C214        C683   1.485       .  S
C214        C215   1.406       .  A
C214        C219   1.405       .  A
C215        H220   1.083       .  S
C215        C216   1.405       .  A
C216        C529   1.484       .  S
C216        C217   1.403       .  A
C217        H221   1.083       .  S
C217        C218   1.403       .  A
C218        C320   1.483       .  S
C218        C219   1.405       .  A
C219        H222   1.083       .  S
C223        C463   1.481       .  S
C223        C224   1.404       .  A
C223        C228   1.404       .  A
C224        H229   1.083       .  S
C224        C225   1.404       .  A
C225        C650   1.489       .  S
C225        C226   1.405       .  A
C226        H230   1.083       .  S
C226        C227   1.405       .  A
C227        C309   1.485       .  S
C227        C228   1.404       .  A
C228        H231   1.083       .  S
C232        C233   1.407       .  A
C232        C237   1.407       .  A
C233        H246   1.083       .  S
C233        C234   1.395       .  A
C234        H247   1.083       .  S
C234        C235   1.398       .  A
C235        C236   1.400       .  A
C235        C238   1.436       .  S
C236        H248   1.084       .  S
C236        C237   1.399       .  A
C237        H249   1.083       .  S
C238        C239   1.204       .  T
C239        C240   1.436       .  S
C240        C241   1.399       .  A
C240        C245   1.400       .  A
C241        H250   1.084       .  S
C241        C242   1.397       .  A
C242        H251   1.083       .  S
C242        C243   1.406       .  A
C243        C244   1.405       .  A
C244        H252   1.082       .  S
C244        C245   1.397       .  A
C245        H253   1.083       .  S
C254        C255   1.405       .  A
C254        C259   1.406       .  A
C255        H268   1.082       .  S
C255        C256   1.396       .  A
C256        H269   1.083       .  S
C256        C257   1.399       .  A
C257        C258   1.399       .  A
C257        C260   1.436       .  S
C258        H270   1.083       .  S
C258        C259   1.398       .  A
C259        H271   1.083       .  S
C260        C261   1.204       .  T
C261        C262   1.436       .  S
C262        C263   1.399       .  A
C262        C267   1.399       .  A
C263        H272   1.084       .  S
C263        C264   1.398       .  A
C264        H273   1.083       .  S
C264        C265   1.407       .  A
C265        C266   1.407       .  A
C266        H274   1.083       .  S
C266        C267   1.396       .  A
C267        H275   1.083       .  S
C276        C277   1.405       .  A
C276        C281   1.406       .  A
C277        H290   1.083       .  S
C277        C278   1.396       .  A
C278        H291   1.084       .  S
C278        C279   1.398       .  A
C279        C280   1.398       .  A
C279        C282   1.431       .  S
C280        H292   1.083       .  S
C280        C281   1.395       .  A
C281        H293   1.081       .  S
C282        C283   1.201       .  T
C283        C284   1.431       .  S
C284        C285   1.398       .  A
C284        C289   1.398       .  A
C285        H294   1.084       .  S
C285        C286   1.395       .  A
C286        H295   1.083       .  S
C286        C287   1.405       .  A
C287        C288   1.406       .  A
C288        H296   1.083       .  S
C288        C289   1.395       .  A
C289        H297   1.083       .  S
C298        C299   1.406       .  A
C298        C303   1.406       .  A
C299        H312   1.082       .  S
C299        C300   1.399       .  A
C300        H313   1.083       .  S
C300        C301   1.400       .  A
C301        C302   1.399       .  A
C301        C304   1.438       .  S
C302        H314   1.084       .  S
C302        C303   1.397       .  A
C303        H315   1.083       .  S
C304        C305   1.205       .  T
C305        C306   1.438       .  S
C306        C307   1.398       .  A
C306        C311   1.400       .  A
C307        H316   1.083       .  S
C307        C308   1.396       .  A
C308        H317   1.083       .  S
C308        C309   1.407       .  A
C309        C310   1.408       .  A
C310        H318   1.083       .  S
C310        C311   1.399       .  A
C311        H319   1.084       .  S
C320        C321   1.406       .  A
C320        C325   1.407       .  A
C321        H334   1.083       .  S
C321        C322   1.397       .  A
C322        H335   1.084       .  S
C322        C323   1.399       .  A
C323        C324   1.399       .  A
C323        C326   1.438       .  S
C324        H336   1.083       .  S
C324        C325   1.398       .  A
C325        H337   1.083       .  S
C326        C327   1.205       .  T
C327        C328   1.438       .  S
C328        C329   1.400       .  A
C328        C333   1.398       .  A
C329        H338   1.083       .  S
C329        C330   1.400       .  A
C330        H339   1.082       .  S
C330        C331   1.406       .  A
C331        C332   1.406       .  A
C332        H340   1.083       .  S
C332        C333   1.395       .  A
C333        H341   1.083       .  S
C342        C343   1.405       .  A
C342        C347   1.405       .  A
C343        H356   1.082       .  S
C343        C344   1.397       .  A
C344        H357   1.083       .  S
C344        C345   1.399       .  A
C345        C346   1.398       .  A
C345        C348   1.433       .  S
C346        H358   1.084       .  S
C346        C347   1.395       .  A
C347        H359   1.083       .  S
C348        C349   1.202       .  T
C349        C350   1.433       .  S
C350        C351   1.400       .  A
C350        C355   1.397       .  A
C351        H360   1.083       .  S
C351        C352   1.398       .  A
C352        H361   1.083       .  S
C352        C353   1.406       .  A
C353        C354   1.406       .  A
C354        H362   1.083       .  S
C354        C355   1.393       .  A
C355        H363   1.084       .  S
C364        C365   1.408       .  A
C364        C369   1.407       .  A
C365        H378   1.083       .  S
C365        C366   1.397       .  A
C366        H379   1.084       .  S
C366        C367   1.399       .  A
C367        C368   1.399       .  A
C367        C370   1.438       .  S
C368        H380   1.083       .  S
C368        C369   1.398       .  A
C369        H381   1.083       .  S
C370        C371   1.205       .  T
C371        C372   1.437       .  S
C372        C373   1.400       .  A
C372        C377   1.399       .  A
C373        H382   1.083       .  S
C373        C374   1.399       .  A
C374        H383   1.083       .  S
C374        C375   1.406       .  A
C375        C376   1.405       .  A
C376        H384   1.082       .  S
C376        C377   1.396       .  A
C377        H385   1.083       .  S
C386        C387   1.407       .  A
C386        C391   1.406       .  A
C387        H400   1.083       .  S
C387        C388   1.395       .  A
C388        H401   1.083       .  S
C388        C389   1.398       .  A
C389        C390   1.400       .  A
C389        C392   1.436       .  S
C390        H402   1.084       .  S
C390        C391   1.399       .  A
C391        H403   1.083       .  S
C392        C393   1.204       .  T
C393        C394   1.436       .  S
C394        C395   1.399       .  A
C394        C399   1.399       .  A
C395        H404   1.084       .  S
C395        C396   1.397       .  A
C396        H405   1.083       .  S
C396        C397   1.406       .  A
C397        C398   1.405       .  A
C398        H406   1.082       .  S
C398        C399   1.397       .  A
C399        H407   1.083       .  S
C408        C409   1.407       .  A
C408        C413   1.405       .  A
C409        H422   1.081       .  S
C409        C410   1.396       .  A
C410        H423   1.083       .  S
C410        C411   1.398       .  A
C411        C412   1.400       .  A
C411        C414   1.435       .  S
C412        H424   1.083       .  S
C412        C413   1.398       .  A
C413        H425   1.083       .  S
C414        C415   1.203       .  T
C415        C416   1.436       .  S
C416        C417   1.399       .  A
C416        C421   1.398       .  A
C417        H426   1.083       .  S
C417        C418   1.397       .  A
C418        H427   1.083       .  S
C418        C419   1.407       .  A
C419        C420   1.408       .  A
C420        H428   1.083       .  S
C420        C421   1.397       .  A
C421        H429   1.084       .  S
C430        C431   1.408       .  A
C430        C435   1.406       .  A
C431        H444   1.083       .  S
C431        C432   1.398       .  A
C432        H445   1.084       .  S
C432        C433   1.399       .  A
C433        C434   1.399       .  A
C433        C436   1.435       .  S
C434        H446   1.083       .  S
C434        C435   1.396       .  A
C435        H447   1.083       .  S
C436        C437   1.203       .  T
C437        C438   1.435       .  S
C438        C439   1.398       .  A
C438        C443   1.400       .  A
C439        H448   1.083       .  S
C439        C440   1.395       .  A
C440        H449   1.081       .  S
C440        C441   1.406       .  A
C441        C442   1.406       .  A
C442        H450   1.083       .  S
C442        C443   1.398       .  A
C443        H451   1.083       .  S
C452        C453   1.405       .  A
C452        C457   1.405       .  A
C453        H466   1.083       .  S
C453        C454   1.395       .  A
C454        H467   1.084       .  S
C454        C455   1.398       .  A
C455        C456   1.400       .  A
C455        C458   1.434       .  S
C456        H468   1.083       .  S
C456        C457   1.398       .  A
C457        H469   1.082       .  S
C458        C459   1.203       .  T
C459        C460   1.434       .  S
C460        C461   1.398       .  A
C460        C465   1.400       .  A
C461        H470   1.084       .  S
C461        C462   1.394       .  A
C462        H471   1.083       .  S
C462        C463   1.406       .  A
C463        C464   1.407       .  A
C464        H472   1.083       .  S
C464        C465   1.399       .  A
C465        H473   1.083       .  S
C474        C475   1.407       .  A
C474        C479   1.407       .  A
C475        H488   1.083       .  S
C475        C476   1.397       .  A
C476        H489   1.083       .  S
C476        C477   1.399       .  A
C477        C478   1.398       .  A
C477        C480   1.434       .  S
C478        H490   1.084       .  S
C478        C479   1.395       .  A
C479        H491   1.082       .  S
C480        C481   1.203       .  T
C481        C482   1.434       .  S
C482        C483   1.399       .  A
C482        C487   1.399       .  A
C483        H492   1.084       .  S
C483        C484   1.396       .  A
C484        H493   1.083       .  S
C484        C485   1.405       .  A
C485        C486   1.406       .  A
C486        H494   1.082       .  S
C486        C487   1.397       .  A
C487        H495   1.083       .  S
C496        C497   1.406       .  A
C496        C501   1.405       .  A
C497        H510   1.083       .  S
C497        C498   1.395       .  A
C498        H511   1.084       .  S
C498        C499   1.398       .  A
C499        C500   1.400       .  A
C499        C502   1.435       .  S
C500        H512   1.083       .  S
C500        C501   1.399       .  A
C501        H513   1.082       .  S
C502        C503   1.203       .  T
C503        C504   1.436       .  S
C504        C505   1.398       .  A
C504        C509   1.400       .  A
C505        H514   1.084       .  S
C505        C506   1.396       .  A
C506        H515   1.083       .  S
C506        C507   1.407       .  A
C507        C508   1.407       .  A
C508        H516   1.083       .  S
C508        C509   1.398       .  A
C509        H517   1.084       .  S
C518        C519   1.406       .  A
C518        C523   1.406       .  A
C519        H532   1.083       .  S
C519        C520   1.396       .  A
C520        H533   1.084       .  S
C520        C521   1.398       .  A
C521        C522   1.400       .  A
C521        C524   1.437       .  S
C522        H534   1.083       .  S
C522        C523   1.399       .  A
C523        H535   1.082       .  S
C524        C525   1.204       .  T
C525        C526   1.437       .  S
C526        C527   1.399       .  A
C526        C531   1.400       .  A
C527        H536   1.084       .  S
C527        C528   1.396       .  A
C528        H537   1.083       .  S
C528        C529   1.406       .  A
C529        C530   1.408       .  A
C530        H538   1.083       .  S
C530        C531   1.398       .  A
C531        H539   1.083       .  S
C540        C541   1.405       .  A
C540        C545   1.406       .  A
C541        H554   1.082       .  S
C541        C542   1.395       .  A
C542        H555   1.083       .  S
C542        C543   1.398       .  A
C543        C544   1.399       .  A
C543        C546   1.433       .  S
C544        H556   1.084       .  S
C544        C545   1.397       .  A
C545        H557   1.083       .  S
C546        C547   1.202       .  T
C547        C548   1.433       .  S
C548        C549   1.398       .  A
C548        C553   1.400       .  A
C549        H558   1.084       .  S
C549        C550   1.396       .  A
C550        H559   1.083       .  S
C550        C551   1.406       .  A
C551        C552   1.404       .  A
C552        H560   1.083       .  S
C552        C553   1.397       .  A
C553        H561   1.083       .  S
C562        C563   1.406       .  A
C562        C567   1.405       .  A
C563        H576   1.083       .  S
C563        C564   1.397       .  A
C564        H577   1.084       .  S
C564        C565   1.399       .  A
C565        C566   1.398       .  A
C565        C568   1.434       .  S
C566        H578   1.083       .  S
C566        C567   1.395       .  A
C567        H579   1.081       .  S
C568        C569   1.202       .  T
C569        C570   1.433       .  S
C570        C571   1.399       .  A
C570        C575   1.397       .  A
C571        H580   1.084       .  S
C571        C572   1.397       .  A
C572        H581   1.083       .  S
C572        C573   1.407       .  A
C573        C574   1.407       .  A
C574        H582   1.083       .  S
C574        C575   1.395       .  A
C575        H583   1.083       .  S
C584        C585   1.405       .  A
C584        C589   1.407       .  A
C585        H598   1.083       .  S
C585        C586   1.397       .  A
C586        H599   1.084       .  S
C586        C587   1.399       .  A
C587        C588   1.400       .  A
C587        C590   1.438       .  S
C588        H600   1.083       .  S
C588        C589   1.400       .  A
C589        H601   1.082       .  S
C590        C591   1.205       .  T
C591        C592   1.438       .  S
C592        C593   1.399       .  A
C592        C597   1.401       .  A
C593        H602   1.084       .  S
C593        C594   1.398       .  A
C594        H603   1.083       .  S
C594        C595   1.407       .  A
C595        C596   1.405       .  A
C596        H604   1.083       .  S
C596        C597   1.398       .  A
C597        H605   1.083       .  S
C606        C607   1.407       .  A
C606        C611   1.408       .  A
C607        H620   1.083       .  S
C607        C608   1.395       .  A
C608        H621   1.083       .  S
C608        C609   1.398       .  A
C609        C610   1.398       .  A
C609        C612   1.432       .  S
C610        H622   1.084       .  S
C610        C611   1.395       .  A
C611        H623   1.083       .  S
C612        C613   1.201       .  T
C613        C614   1.432       .  S
C614        C615   1.397       .  A
C614        C619   1.399       .  A
C615        H624   1.084       .  S
C615        C616   1.394       .  A
C616        H625   1.083       .  S
C616        C617   1.406       .  A
C617        C618   1.405       .  A
C618        H626   1.082       .  S
C618        C619   1.397       .  A
C619        H627   1.083       .  S
C628        C629   1.405       .  A
C628        C633   1.405       .  A
C629        H642   1.083       .  S
C629        C630   1.395       .  A
C630        H643   1.084       .  S
C630        C631   1.398       .  A
C631        C632   1.397       .  A
C631        C634   1.429       .  S
C632        H644   1.083       .  S
C632        C633   1.394       .  A
C633        H645   1.081       .  S
C634        C635   1.200       .  T
C635        C636   1.430       .  S
C636        C637   1.398       .  A
C636        C641   1.398       .  A
C637        H646   1.084       .  S
C637        C638   1.394       .  A
C638        H647   1.083       .  S
C638        C639   1.404       .  A
C639        C640   1.406       .  A
C640        H648   1.083       .  S
C640        C641   1.396       .  A
C641        H649   1.083       .  S
C650        C651   1.408       .  A
C650        C655   1.409       .  A
C651        H664   1.083       .  S
C651        C652   1.398       .  A
C652        H665   1.083       .  S
C652        C653   1.399       .  A
C653        C654   1.399       .  A
C653        C656   1.440       .  S
C654        H666   1.084       .  S
C654        C655   1.398       .  A
C655        H667   1.083       .  S
C656        C657   1.206       .  T
C657        C658   1.440       .  S
C658        C659   1.399       .  A
C658        C663   1.401       .  A
C659        H668   1.083       .  S
C659        C660   1.397       .  A
C660        H669   1.083       .  S
C660        C661   1.407       .  A
C661        C662   1.406       .  A
C662        H670   1.082       .  S
C662        C663   1.400       .  A
C663        H671   1.084       .  S
C672        C673   1.406       .  A
C672        C677   1.406       .  A
C673        H686   1.083       .  S
C673        C674   1.397       .  A
C674        H687   1.084       .  S
C674        C675   1.399       .  A
C675        C676   1.400       .  A
C675        C678   1.439       .  S
C676        H688   1.083       .  S
C676        C677   1.400       .  A
C677        H689   1.082       .  S
C678        C679   1.206       .  T
C679        C680   1.439       .  S
C680        C681   1.400       .  A
C680        C685   1.399       .  A
C681        H690   1.083       .  S
C681        C682   1.399       .  A
C682        H691   1.083       .  S
C682        C683   1.408       .  A
C683        C684   1.407       .  A
C684        H692   1.082       .  S
C684        C685   1.397       .  A
C685        H693   1.084       .  S
C694        C695   1.406       .  A
C694        C699   1.404       .  A
C695        H708   1.083       .  S
C695        C696   1.395       .  A
C696        H709   1.084       .  S
C696        C697   1.398       .  A
C697        C698   1.399       .  A
C697        C700   1.432       .  S
C698        H710   1.083       .  S
C698        C699   1.396       .  A
C699        H711   1.082       .  S
C700        C701   1.201       .  T
C701        C702   1.432       .  S
C702        C703   1.399       .  A
C702        C707   1.398       .  A
C703        H712   1.084       .  S
C703        C704   1.395       .  A
C704        H713   1.083       .  S
C704        C705   1.405       .  A
C705        C706   1.407       .  A
C706        H714   1.083       .  S
C706        C707   1.395       .  A
C707        H715   1.084       .  S
C716        C717   1.406       .  A
C716        C721   1.406       .  A
C717        H730   1.083       .  S
C717        C718   1.396       .  A
C718        H731   1.084       .  S
C718        C719   1.399       .  A
C719        C720   1.397       .  A
C719        C722   1.431       .  S
C720        H732   1.083       .  S
C720        C721   1.394       .  A
C721        H733   1.083       .  S
C722        C723   1.201       .  T
C723        C724   1.431       .  S
C724        C725   1.398       .  A
C724        C729   1.398       .  A
C725        H734   1.084       .  S
C725        C726   1.395       .  A
C726        H735   1.082       .  S
C726        C727   1.406       .  A
C727        C728   1.404       .  A
C728        H736   1.083       .  S
C728        C729   1.395       .  A
C729        H737   1.084       .  S
C738        C739   1.407       .  A
C738        C743   1.405       .  A
C739        H752   1.082       .  S
C739        C740   1.400       .  A
C740        H753   1.083       .  S
C740        C741   1.400       .  A
C741        C742   1.399       .  A
C741        C744   1.438       .  S
C742        H754   1.084       .  S
C742        C743   1.396       .  A
C743        H755   1.083       .  S
C744        C745   1.205       .  T
C745        C746   1.437       .  S
C746        C747   1.400       .  A
C746        C751   1.400       .  A
C747        H756   1.083       .  S
C747        C748   1.397       .  A
C748        H757   1.083       .  S
C748        C749   1.405       .  A
C749        C750   1.406       .  A
C750        H758   1.083       .  S
C750        C751   1.398       .  A
C751        H759   1.084       .  S
