geometry optimzed in LAMMPS
_audit_creation_date              2020-12-01 
_audit_creation_method            'lammps2cif' 
_symmetry_space_group_name_H-M    'P1' 
_symmetry_Int_Tables_number       1 
_symmetry_cell_setting            triclinic 
loop_ 
_symmetry_equiv_pos_as_xyz 
  x,y,z 
_cell_length_a                    30.49625898 
_cell_length_b                    30.440192279727558 
_cell_length_c                    76.66605543950268 
_cell_angle_alpha                 89.7505707237676 
_cell_angle_beta                  90.12780406932633 
_cell_angle_gamma                 89.0749654642201 
loop_ 
_atom_site_label 
_atom_site_type_symbol 
_atom_site_fract_x 
_atom_site_fract_y 
_atom_site_fract_z 
_atom_site_charge 
N1          N  0.97613637  0.01359932  0.15977117    -0.26400
N2          N  0.01918976  0.01700962  0.16039424    -0.34200
C3          C  0.03185306  0.01885997  0.17714274     0.02000
C4          C  0.99487529  0.01691068  0.18756438     0.08000
C5          C  0.96007614  0.01343245  0.17607923    -0.05100
H6          H  0.06555698  0.02101208  0.18141969     0.08700
H7          H  0.92583129  0.00943635  0.17924550     0.09900
Cu8        Cu  0.05838898  0.01799006  0.13841159     0.44200
Cu9        Cu  0.94207177  0.00906499  0.13673581     0.42000
Cu10       Cu  0.00350320  0.01469127  0.09611657     0.43900
N11         N  0.09136846  0.01734310  0.11485384    -0.33700
N12         N  0.07199875  0.01558698  0.09943587    -0.28000
C13         C  0.10326186  0.01579494  0.08703722    -0.04100
C14         C  0.14434429  0.01784089  0.09499886     0.08100
C15         C  0.13506428  0.01893532  0.11268989     0.01900
H16         H  0.09647848  0.01463747  0.07320242     0.09600
H17         H  0.15797607  0.02200740  0.12336458     0.08600
N18         N  0.93460855  0.01561380  0.09763789    -0.35200
N19         N  0.91317145  0.01290860  0.11255350    -0.27400
C20         C  0.86983141  0.01431757  0.10951652    -0.02600
C21         C  0.86288075  0.01853674  0.09176403     0.06000
C22         C  0.90490219  0.01893392  0.08462381     0.04100
H23         H  0.84547563  0.01123828  0.11963607     0.09200
H24         H  0.91329600  0.02150392  0.07097087     0.08000
N25         N  0.99387525  0.96921041  0.34585914    -0.26400
N26         N  0.99322421  0.01256806  0.34603923    -0.34200
C27         C  0.99139460  0.02777320  0.32962146     0.02000
C28         C  0.99068769  0.99233691  0.31839908     0.08000
C29         C  0.99237510  0.95556148  0.32917582    -0.05100
H30         H  0.99100027  0.06223953  0.32613676     0.08700
H31         H  0.99406864  0.92149388  0.32524676     0.09900
Cu32       Cu  0.99578086  0.04952813  0.36840848     0.44200
Cu33       Cu  0.99835398  0.93232567  0.36866193     0.42000
Cu34       Cu  0.99766096  0.99318624  0.40998879     0.43900
N35         N  0.99694874  0.08162400  0.39196264    -0.33700
N36         N  0.99694603  0.06143218  0.40725002    -0.28000
C37         C  0.99728629  0.09196780  0.41987946    -0.04100
C38         C  0.99795175  0.13329639  0.41213748     0.08100
C39         C  0.99744136  0.12528613  0.39439919     0.01900
H40         H  0.99754538  0.08461541  0.43369136     0.09600
H41         H  0.99641195  0.14918477  0.38393311     0.08600
N42         N  0.00206633  0.92484091  0.40820820    -0.35200
N43         N  0.00254689  0.90344469  0.39322585    -0.27400
C44         C  0.00531422  0.86012409  0.39646872    -0.02600
C45         C  0.00677460  0.85341218  0.41434786     0.06000
C46         C  0.00453461  0.89538376  0.42138303     0.04100
H47         H  0.00594223  0.83523140  0.38645066     0.09200
H48         H  0.00328901  0.90407835  0.43503438     0.08000
C49         C  0.98375450  0.58470530  0.48791449    -0.09900
C50         C  0.97882683  0.60616724  0.50383141    -0.03800
C51         C  0.97975411  0.58336126  0.51967727    -0.09900
C52         C  0.98504708  0.53710306  0.51974135     0.11000
C53         C  0.98849137  0.51453786  0.50360287    -0.01700
C54         C  0.98839191  0.53844184  0.48762081     0.10800
C55         C  0.99265910  0.51550567  0.47183307    -0.11700
C56         C  0.99578879  0.46974167  0.47166074    -0.11700
C57         C  0.99507982  0.44545173  0.48727958     0.10800
C58         C  0.99225099  0.46801158  0.50343995    -0.01700
C59         C  0.98660744  0.51285181  0.53539888    -0.11800
C60         C  0.99079998  0.46710948  0.53524253    -0.11800
C61         C  0.99311130  0.44408771  0.51942739     0.11000
C62         C  0.99622768  0.39770987  0.51904583    -0.09900
C63         C  0.99777918  0.37615883  0.50306951    -0.03800
C64         C  0.99735668  0.39909473  0.48728771    -0.09900
H65         H  0.99292668  0.53281198  0.45946531     0.08300
H66         H  0.99858125  0.45344392  0.45917887     0.08300
H67         H  0.98416180  0.52909116  0.54790009     0.08500
H68         H  0.99163028  0.44979468  0.54761106     0.08500
H69         H  0.97628887  0.64179779  0.50392788     0.04900
H70         H  0.99979212  0.34050350  0.50291692     0.04900
N71         N  0.02431369  0.99612050  0.84664055    -0.26400
N72         N  0.98218004  0.00668359  0.84652929    -0.34200
C73         C  0.96863352  0.01149929  0.82992588     0.02000
C74         C  0.00415759  0.00378719  0.81904757     0.08000
C75         C  0.03884400  0.99400544  0.83016592    -0.05100
H76         H  0.93498425  0.01815139  0.82614972     0.08700
H77         H  0.07216586  0.98540623  0.82658474     0.09900
Cu78       Cu  0.94524091  0.01120592  0.86901576     0.44200
Cu79       Cu  0.05981708  0.98400641  0.86906658     0.42000
Cu80       Cu  0.00249265  0.99564735  0.91036977     0.43900
N81         N  0.91400206  0.00901297  0.89287843    -0.33700
N82         N  0.93421359  0.00367948  0.90803526    -0.28000
C83         C  0.90364131  0.00239954  0.92070628    -0.04100
C84         C  0.86227903  0.00652469  0.91310376     0.08100
C85         C  0.87044747  0.01102045  0.89545011     0.01900
H86         H  0.91090206  0.99779711  0.93440809     0.09600
H87         H  0.84666249  0.01588602  0.88511898     0.08600
N88         N  0.07017291  0.98347261  0.90805596    -0.35200
N89         N  0.09037640  0.97826303  0.89295019    -0.27400
C90         C  0.13354798  0.97181390  0.89571341    -0.02600
C91         C  0.14133859  0.97290570  0.91347344     0.06000
C92         C  0.10032723  0.98056101  0.92087515     0.04100
H93         H  0.15755832  0.96895503  0.88540920     0.09200
H94         H  0.09304721  0.98447991  0.93458294     0.08000
N95         N  0.00802443  0.01246706  0.66035441    -0.26400
N96         N  0.00063087  0.96985102  0.66096091    -0.34200
C97         C  0.00045758  0.95657032  0.67767695     0.02000
C98         C  0.00869910  0.99244426  0.68811122     0.08000
C99         C  0.01315566  0.02745822  0.67670712    -0.05100
H100        H  0.99490653  0.92320128  0.68192171     0.08700
H101        H  0.01847684  0.06147158  0.68001011     0.09900
Cu102      Cu  0.99227254  0.93144814  0.63908559     0.44200
Cu103      Cu  0.00988194  0.04761071  0.63721678     0.42000
Cu104      Cu  0.00158081  0.98611151  0.59692192     0.43900
N105        N  0.98892946  0.89917936  0.61546813    -0.33700
N106        N  0.99283218  0.91881110  0.60014867    -0.28000
C107        C  0.99141188  0.88820817  0.58757605    -0.04100
C108        C  0.98617603  0.84734334  0.59532837     0.08100
C109        C  0.98486410  0.85570467  0.61305297     0.01900
H110        H  0.99463185  0.89517551  0.57380385     0.09600
H111        H  0.98318455  0.83190264  0.62352983     0.08600
N112        N  0.00859173  0.05404463  0.59783427    -0.35200
N113        N  0.01127890  0.07591814  0.61263902    -0.27400
C114        C  0.01383391  0.11899714  0.60912576    -0.02600
C115        C  0.01281487  0.12503471  0.59121307     0.06000
C116        C  0.00943975  0.08292636  0.58445432     0.04100
H117        H  0.01586129  0.14418063  0.61898591     0.09200
H118        H  0.00602730  0.07386010  0.57090736     0.08000
C119        C  0.59253369  0.00340643  0.98642795    -0.09900
C120        C  0.61499519  0.00858397  0.00206924    -0.03800
C121        C  0.59327272  0.00982793  0.01800159    -0.09900
C122        C  0.54725871  0.00650181  0.01855714     0.11000
C123        C  0.52376407  0.00113724  0.00272392    -0.01700
C124        C  0.54650521  0.99932099  0.98654826     0.10800
C125        C  0.52276846  0.99316578  0.97107711    -0.11700
C126        C  0.47732579  0.98903169  0.97143225    -0.11700
C127        C  0.45416409  0.99142490  0.98724818     0.10800
C128        C  0.47755072  0.99725990  0.00307914    -0.01700
C129        C  0.52426177  0.00836251  0.03440471    -0.11800
C130        C  0.47872322  0.00481880  0.03474764    -0.11800
C131        C  0.45480942  0.99912544  0.01925968     0.11000
C132        C  0.40872183  0.99487381  0.01942372    -0.09900
C133        C  0.38637314  0.98916854  0.00375089    -0.03800
C134        C  0.40818731  0.98754355  0.98777601    -0.09900
H135        H  0.53926379  0.99128716  0.95860217     0.08300
H136        H  0.46043077  0.98389033  0.95919793     0.08300
H137        H  0.54139726  0.01263651  0.04665117     0.08500
H138        H  0.46236368  0.00621621  0.04725802     0.08500
H139        H  0.65048803  0.01114989  0.00185954     0.04900
H140        H  0.35088206  0.98676311  0.00394679     0.04900
C141        C  0.26006822  0.94652159  0.92633762    -0.13400
C142        C  0.26451975  0.97287506  0.94110722     0.17000
C143        C  0.22887087  0.99937805  0.94655689     0.03200
C144        C  0.18924030  0.99844765  0.93742072    -0.11900
C145        C  0.18434615  0.97206509  0.92260000    -0.03000
C146        C  0.22064317  0.94623520  0.91691166     0.02500
C147        C  0.30673434  0.97343999  0.95054038     0.09300
N148        N  0.23231344  0.02717674  0.96145437     0.65700
H149        H  0.16226242  0.01921901  0.94185143     0.18600
N150        N  0.21805691  0.91881313  0.90189148     0.76200
H151        H  0.28759749  0.92632873  0.92199066     0.10100
C152        C  0.32177540  0.93684238  0.96029971     0.03800
C153        C  0.35845857  0.94079849  0.97105746    -0.04900
C154        C  0.38046104  0.98070208  0.97226220    -0.23300
C155        C  0.36789930  0.01601485  0.96130214     0.13100
C156        C  0.33109370  0.01209863  0.95054174    -0.12400
N157        N  0.29812022  0.89674199  0.96059363     0.64700
H158        H  0.36783005  0.91357634  0.97956283     0.12600
N159        N  0.39030788  0.05684118  0.96179241     0.61400
H160        H  0.32031180  0.04005043  0.94269645     0.08700
O161        O  0.23558816  0.93139918  0.88787413    -0.40100
O162        O  0.21022038  0.87854805  0.90392857    -0.39300
O163        O  0.23892589  0.06764861  0.95928575    -0.39300
O164        O  0.21902315  0.01362647  0.97606046    -0.37000
O165        O  0.41894620  0.06466135  0.95038594    -0.37900
O166        O  0.37424118  0.08826953  0.97048849    -0.34000
O167        O  0.31327338  0.86393673  0.95245327    -0.35400
O168        O  0.26962409  0.89096760  0.97225299    -0.39700
C169        C  0.74097056  0.99027488  0.92346777    -0.13400
C170        C  0.73786118  0.00895449  0.94008110     0.17000
C171        C  0.77576091  0.02671197  0.94775659     0.03200
C172        C  0.81565821  0.02567737  0.93870730    -0.11900
C173        C  0.81896679  0.00701990  0.92204493    -0.03000
C174        C  0.78087920  0.98915308  0.91440176     0.02500
C175        C  0.69559509  0.00699238  0.94960871     0.09300
N176        N  0.77492123  0.04398202  0.96505534     0.65700
H177        H  0.84439666  0.03950577  0.94485206     0.18600
N178        N  0.78246676  0.96747898  0.89792300     0.76200
H179        H  0.71222890  0.97572542  0.91759153     0.10100
C180        C  0.66964710  0.04498772  0.95266089     0.03800
C181        C  0.63245483  0.04245140  0.96327213    -0.04900
C182        C  0.62007131  0.00238233  0.97061823    -0.23300
C183        C  0.64363391  0.96379739  0.96637789     0.13100
C184        C  0.68138136  0.96631043  0.95602595    -0.12400
N185        N  0.68069206  0.08643369  0.94522198     0.64700
H186        H  0.61462495  0.07231416  0.96662567     0.12600
N187        N  0.63105680  0.92246768  0.97356793     0.61400
H188        H  0.70048680  0.93672192  0.95348143     0.08700
O189        O  0.76601602  0.98637088  0.88470594    -0.40100
O190        O  0.78980923  0.92658447  0.89749447    -0.39300
O191        O  0.78413231  0.01870238  0.97767130    -0.39300
O192        O  0.77756925  0.08493114  0.96717348    -0.37000
O193        O  0.59687123  0.90428658  0.96802238    -0.37900
O194        O  0.64879778  0.90871928  0.98748237    -0.34000
O195        O  0.66368622  0.09750501  0.93081206    -0.35400
O196        O  0.69594983  0.11582765  0.95495048    -0.39700
C197        C  0.97722369  0.02250136  0.77106885    -0.13400
C198        C  0.00631361  0.99267665  0.76320393     0.17000
C199        C  0.03513144  0.96730951  0.77362659     0.03200
C200        C  0.03378466  0.97147871  0.79175046    -0.11900
C201        C  0.00460496  0.00129134  0.79977201    -0.03000
C202        C  0.97645170  0.02746905  0.78919183     0.02500
C203        C  0.00786683  0.99076273  0.74404140     0.09300
N204        N  0.06594652  0.93726487  0.76600445     0.65700
H205        H  0.05558958  0.95083709  0.79957253     0.18600
N206        N  0.94919392  0.06130336  0.79644102     0.76200
H207        H  0.95588338  0.04309412  0.76300610     0.10100
C208        C  0.97538693  0.96903543  0.73448307     0.03800
C209        C  0.97655573  0.96975799  0.71627199    -0.04900
C210        C  0.00902749  0.99294077  0.70734786    -0.23300
C211        C  0.04117304  0.01534465  0.71697491     0.13100
C212        C  0.04056923  0.01366341  0.73521821    -0.12400
N213        N  0.94076229  0.94661980  0.74310527     0.64700
H214        H  0.95133690  0.95276376  0.70904466     0.12600
N215        N  0.07533254  0.03875442  0.70848278     0.61400
H216        H  0.06541867  0.03087613  0.74257069     0.08700
O217        O  0.90816213  0.05661231  0.79660423    -0.40100
O218        O  0.96466199  0.09915854  0.79843700    -0.39300
O219        O  0.10559326  0.94806271  0.76474318    -0.39300
O220        O  0.05601682  0.89737716  0.76452125    -0.37000
O221        O  0.07223165  0.08001559  0.70712294    -0.37900
O222        O  0.11219045  0.02014099  0.70636587    -0.34000
O223        O  0.90380683  0.96542344  0.74465612    -0.35400
O224        O  0.94414550  0.90572978  0.74564848    -0.39700
C225        C  0.02917858  0.21643305  0.55763844    -0.13400
C226        C  0.01051545  0.25267804  0.56631369     0.17000
C227        C  0.99143715  0.24617472  0.58283213     0.03200
C228        C  0.99227998  0.20435737  0.59046615    -0.11900
C229        C  0.01168861  0.16812332  0.58198863    -0.03000
C230        C  0.03008259  0.17448481  0.56527389     0.02500
C231        C  0.00795820  0.29584606  0.55719612     0.09300
N232        N  0.97159799  0.28177850  0.59217176     0.65700
H233        H  0.97723746  0.20030937  0.60317740     0.18600
N234        N  0.05109986  0.13933509  0.55607147     0.76200
H235        H  0.04272509  0.22057356  0.54466098     0.10100
C236        C  0.04571437  0.31608807  0.55042627     0.03800
C237        C  0.04126272  0.35257644  0.53933748    -0.04900
C238        C  0.99973823  0.36925498  0.53470784    -0.23300
C239        C  0.96217070  0.35049234  0.54211407     0.13100
C240        C  0.96654644  0.31426431  0.55334121    -0.12400
N241        N  0.08865382  0.29879959  0.55402598     0.64700
H242        H  0.07033272  0.36623505  0.53338410     0.12600
N243        N  0.91928851  0.36538128  0.53713099     0.61400
H244        H  0.93715531  0.29854258  0.55807445     0.08700
O245        O  0.09226758  0.13504812  0.55696061    -0.40100
O246        O  0.03079836  0.12088752  0.54383013    -0.39300
O247        O  0.93032428  0.28467093  0.59297221    -0.39300
O248        O  0.99437713  0.30281816  0.60294664    -0.37000
O249        O  0.89770720  0.38993011  0.54730503    -0.37900
O250        O  0.89981036  0.34668515  0.52473954    -0.34000
O251        O  0.10869419  0.27725012  0.54239916    -0.35400
O252        O  0.11001406  0.31387020  0.56671217    -0.39700
C253        C  0.94686098  0.67291679  0.55085379    -0.13400
C254        C  0.98725947  0.68176740  0.55869711     0.17000
C255        C  0.02301894  0.65257136  0.55608095     0.03200
C256        C  0.01887728  0.61757754  0.54439755    -0.11900
C257        C  0.97924637  0.61070065  0.53559407    -0.03000
C258        C  0.94250221  0.63754524  0.53948176     0.02500
C259        C  0.99099000  0.72265040  0.56890929     0.09300
N260        N  0.06342485  0.65776813  0.56524447     0.65700
H261        H  0.04731567  0.59695139  0.54154636     0.18600
N262        N  0.90110475  0.63053605  0.53129891     0.76200
H263        H  0.91885681  0.69463442  0.55308542     0.10100
C264        C  0.01439227  0.75891021  0.56251388     0.03800
C265        C  0.01269051  0.79883954  0.57146331    -0.04900
C266        C  0.98714854  0.80400429  0.58654661    -0.23300
C267        C  0.96325436  0.76776147  0.59279511     0.13100
C268        C  0.96571277  0.72753356  0.58402854    -0.12400
N269        N  0.03735559  0.75686001  0.54629888     0.64700
H270        H  0.03108585  0.82625692  0.56635196     0.12600
N271        N  0.93365582  0.77200405  0.60712496     0.61400
H272        H  0.94628719  0.70028997  0.58866668     0.08700
O273        O  0.88846507  0.65613294  0.51925813    -0.40100
O274        O  0.87341942  0.60672983  0.53885397    -0.39300
O275        O  0.06833218  0.63928170  0.57989659    -0.39300
O276        O  0.09690195  0.66989482  0.55699919    -0.37000
O277        O  0.89433309  0.78333105  0.60418049    -0.37900
O278        O  0.94339034  0.75401012  0.62150744    -0.34000
O279        O  0.01724279  0.76751671  0.53247455    -0.35400
O280        O  0.07871982  0.75702915  0.54639402    -0.39700
C281        C  0.02046462  0.25226531  0.42418443    -0.13400
C282        C  0.99829895  0.25567731  0.44007841     0.17000
C283        C  0.97469868  0.21946747  0.44636422     0.03200
C284        C  0.97487242  0.18020262  0.43697286    -0.11900
C285        C  0.99763780  0.17630425  0.42115159    -0.03000
C286        C  0.02006257  0.21324273  0.41459959     0.02500
C287        C  0.99990217  0.29727321  0.44990023     0.09300
N288        N  0.95121383  0.22172218  0.46245273     0.65700
H289        H  0.95684573  0.15254988  0.44211123     0.18600
N290        N  0.04402181  0.21146456  0.39863334     0.76200
H291        H  0.03832600  0.28019795  0.41917832     0.10100
C292        C  0.03940746  0.31203037  0.45726881     0.03800
C293        C  0.03889875  0.34911245  0.46796376    -0.04900
C294        C  0.99956391  0.37184379  0.47141565    -0.23300
C295        C  0.96083386  0.35924751  0.46289188     0.11300
C296        C  0.96124419  0.32203175  0.45224535    -0.12400
N297        N  0.07944845  0.28757095  0.45526749     0.64700
H298        H  0.06872505  0.35817122  0.47472845     0.12600
N299        N  0.92031575  0.38204659  0.46594250     0.61400
H300        H  0.93089677  0.31148277  0.44626152     0.08700
O301        O  0.02737505  0.22875431  0.38511652    -0.40100
O302        O  0.08484023  0.20412580  0.39915067    -0.39300
O303        O  0.91004002  0.22653026  0.46215749    -0.39300
O304        O  0.96975849  0.20877138  0.47631905    -0.37000
O305        O  0.90768788  0.41148241  0.45534865    -0.37900
O306        O  0.89344625  0.36670109  0.47677744    -0.34000
O307        O  0.10836024  0.30148026  0.44497143    -0.35400
O308        O  0.08964460  0.25841886  0.46637166    -0.39700
C309        C  0.02633561  0.76050907  0.44735909    -0.13400
C310        C  0.00517784  0.72558938  0.43914567     0.17000
C311        C  0.98457003  0.73315936  0.42290954     0.03200
C312        C  0.98577803  0.77484979  0.41519545    -0.11900
C313        C  0.00676998  0.81002032  0.42338230    -0.03000
C314        C  0.02724394  0.80244658  0.43972156     0.02500
C315        C  0.00016186  0.68356469  0.44880053     0.09300
N316        N  0.96211344  0.69890293  0.41408267     0.65700
H317        H  0.96926416  0.77980545  0.40276837     0.18600
N318        N  0.04968118  0.83648733  0.44866806     0.76200
H319        H  0.04126199  0.75552848  0.46010459     0.10100
C320        C  0.03664213  0.65896103  0.45507678     0.03800
C321        C  0.03026878  0.62394082  0.46668370    -0.04900
C322        C  0.98808420  0.61312332  0.47229602    -0.23300
C323        C  0.95160607  0.63630661  0.46540028     0.13100
C324        C  0.95788960  0.67104713  0.45372163    -0.12400
N325        N  0.08035840  0.67009051  0.45031298     0.64700
H326        H  0.05861489  0.60671876  0.47215078     0.12600
N327        N  0.90815190  0.62677255  0.47098641     0.61400
H328        H  0.92955627  0.69014238  0.44932707     0.08700
O329        O  0.09073671  0.83905627  0.44709914    -0.40100
O330        O  0.03106351  0.85538674  0.46133228    -0.39300
O331        O  0.92074133  0.69862847  0.41429870    -0.39300
O332        O  0.98235885  0.67650854  0.40277364    -0.37000
O333        O  0.89033774  0.65056684  0.48247417    -0.37900
O334        O  0.88442811  0.60296079  0.46155120    -0.34000
O335        O  0.10397907  0.69022866  0.46108440    -0.35400
O336        O  0.09834068  0.65054210  0.43766678    -0.39700
C337        C  0.32140692  0.97326597  0.05296173    -0.13400
C338        C  0.30934022  0.01632390  0.05753263     0.17000
C339        C  0.33545559  0.05143191  0.05184922     0.03200
C340        C  0.37094309  0.04319014  0.04067348    -0.11900
C341        C  0.38105494  0.00040838  0.03513947    -0.03000
C342        C  0.35688676  0.96504416  0.04184540     0.02500
C343        C  0.26854265  0.02302279  0.06772293     0.09300
N344        N  0.32625267  0.09553670  0.05713145     0.65700
H345        H  0.38922752  0.07063205  0.03550665     0.18600
N346        N  0.36679607  0.92081654  0.03686685     0.76200
H347        H  0.30202318  0.94591825  0.05752284     0.10100
C348        C  0.22922550  0.03744166  0.05969400     0.03800
C349        C  0.18972004  0.03640955  0.06897706    -0.04900
C350        C  0.18800138  0.02050853  0.08621246    -0.23300
C351        C  0.22790486  0.00693082  0.09433087     0.13100
C352        C  0.26743274  0.00843421  0.08504219    -0.12400
N353        N  0.22824162  0.05038334  0.04175788     0.64700
H354        H  0.15996613  0.04746787  0.06240612     0.12600
N355        N  0.22897506  0.98879010  0.11153352     0.61400
H356        H  0.29740125  0.99631238  0.09120035     0.08700
O357        O  0.34402227  0.90289038  0.02521224    -0.40100
O358        O  0.39030519  0.89705772  0.04679351    -0.39300
O359        O  0.34640616  0.11068600  0.07011569    -0.39300
O360        O  0.30873047  0.12194760  0.04636808    -0.37000
O361        O  0.22689762  0.94768089  0.11344055    -0.37900
O362        O  0.24374991  0.01161367  0.12386119    -0.34000
O363        O  0.21943868  0.02211525  0.03033706    -0.35400
O364        O  0.22423423  0.09061069  0.03795180    -0.39700
C365        C  0.74097161  0.03187832  0.08056325    -0.13400
C366        C  0.73998341  0.01468706  0.06368867     0.17000
C367        C  0.77948638  0.00026167  0.05591007     0.03200
C368        C  0.81884121  0.00206677  0.06528022    -0.11900
C369        C  0.82011833  0.01872082  0.08231947    -0.03000
C370        C  0.78040217  0.03424016  0.08991291     0.02500
C371        C  0.69771797  0.01359035  0.05419518     0.09300
N372        N  0.78063625  0.98557030  0.03823797     0.65700
H373        H  0.84867178  0.99014026  0.05908496     0.18600
N374        N  0.77943534  0.05429992  0.10672147     0.76200
H375        H  0.71081769  0.04399520  0.08648601     0.10100
C376        C  0.67651417  0.97362869  0.05085852     0.03800
C377        C  0.63889936  0.97341916  0.04041860    -0.04900
C378        C  0.62158041  0.01257869  0.03350471    -0.23300
C379        C  0.64045572  0.05283451  0.03796050     0.13100
C380        C  0.67857894  0.05316371  0.04818993    -0.12400
N381        N  0.69285711  0.93297042  0.05783562     0.64700
H382        H  0.62460631  0.94232511  0.03685733     0.12600
N383        N  0.62250409  0.09315067  0.03122176     0.61400
H384        H  0.69406943  0.08414206  0.05098775     0.08700
O385        O  0.76322466  0.03355776  0.11938856    -0.40100
O386        O  0.78310546  0.09543391  0.10778090    -0.39300
O387        O  0.78720568  0.01327616  0.02627608    -0.39300
O388        O  0.78773404  0.94539293  0.03518816    -0.37000
O389        O  0.58624264  0.10742192  0.03694898    -0.37900
O390        O  0.63791550  0.10928708  0.01738837    -0.34000
O391        O  0.67747890  0.91926278  0.07208118    -0.35400
O392        O  0.71171718  0.90596554  0.04779639    -0.39700
C393        C  0.97391256  0.96805106  0.27015099    -0.13400
C394        C  0.99637810  0.00290806  0.26252204     0.17000
C395        C  0.01691549  0.03390604  0.27318466     0.03200
C396        C  0.01479109  0.02954432  0.29130067    -0.11900
C397        C  0.99224620  0.99469384  0.29910867    -0.03000
C398        C  0.97152046  0.96370355  0.28831050     0.02500
C399        C  0.99655242  0.00724595  0.24340539     0.09300
N400        N  0.03970733  0.07014893  0.26580629     0.65700
H401        H  0.03127835  0.05357397  0.29930157     0.18600
N402        N  0.94585761  0.92921408  0.29546334     0.76200
H403        H  0.95739889  0.94449740  0.26191942     0.10100
C404        C  0.02938262  0.98681376  0.23333142     0.03800
C405        C  0.02810787  0.99059245  0.21519603    -0.04900
C406        C  0.99416044  0.01410926  0.20679174    -0.23300
C407        C  0.96081471  0.03415933  0.21693750     0.13100
C408        C  0.96245522  0.03068647  0.23514876    -0.12400
N409        N  0.06383991  0.96155981  0.24133264     0.64700
H410        H  0.05359057  0.97431720  0.20761881     0.12600
N411        N  0.92616393  0.05952526  0.20908703     0.61400
H412        H  0.93696084  0.04637791  0.24291609     0.08700
O413        O  0.96063137  0.89027379  0.29506885    -0.40100
O414        O  0.90537851  0.93583375  0.29788766    -0.39300
O415        O  0.02134389  0.10758653  0.26544006    -0.39300
O416        O  0.08058953  0.06701370  0.26351187    -0.37000
O417        O  0.88861846  0.04305274  0.20767254    -0.37900
O418        O  0.93004634  0.10060815  0.20775716    -0.34000
O419        O  0.06112921  0.92025886  0.24186003    -0.35400
O420        O  0.10042012  0.97910880  0.24401828    -0.39700
loop_ 
_geom_bond_atom_site_label_1 
_geom_bond_atom_site_label_2 
_geom_bond_distance 
_geom_bond_site_symmetry_2 
_ccdc_geom_bond_type 
N1            N2   1.320   1_655  A
N1            C5   1.344       .  A
N1           Cu9   2.053       .  S
N2            C3   1.342       .  A
N2           Cu8   2.069       .  S
C3            C4   1.385   1_455  A
C3            H6   1.081       .  S
C4            C5   1.383       .  A
C4          C406   1.476       .  S
C5            H7   1.081       .  S
Cu8          N11   2.069       .  S
Cu9          N19   2.053       .  S
Cu10         N12   2.104       .  S
Cu10         N18   2.104   1_455  S
N11          N12   1.322       .  A
N11          C15   1.345       .  A
N12          C13   1.348       .  A
C13          C14   1.395       .  A
C13          H16   1.081       .  S
C14          C15   1.387       .  A
C14         C350   1.497       .  S
C15          H17   1.080       .  S
N18          N19   1.321       .  A
N18          C22   1.349       .  A
N19          C20   1.342       .  A
C20          C21   1.382       .  A
C20          H23   1.080       .  S
C21          C22   1.395       .  A
C21         C369   1.490       .  S
C22          H24   1.081       .  S
N25          N26   1.320   1_565  A
N25          C29   1.347       .  A
N25         Cu33   2.077       .  S
N26          C27   1.340       .  A
N26         Cu32   2.057       .  S
C27          C28   1.383   1_545  A
C27          H30   1.081       .  S
C28          C29   1.389       .  A
C28         C397   1.481       .  S
C29          H31   1.082       .  S
Cu32         N35   2.057       .  S
Cu33         N43   2.078   1_655  S
Cu34         N36   2.087   1_565  S
Cu34         N42   2.088   1_655  S
N35          N36   1.321       .  A
N35          C39   1.343       .  A
N36          C37   1.345       .  A
C37          C38   1.389       .  A
C37          H40   1.081       .  S
C38          C39   1.383       .  A
C38         C285   1.483       .  S
C39          H41   1.081       .  S
N42          N43   1.323       .  A
N42          C46   1.349       .  A
N43          C44   1.342       .  A
C44          C45   1.385       .  A
C44          H47   1.081       .  S
C45          C46   1.390       .  A
C45         C313   1.489       .  S
C46          H48   1.081       .  S
C49          C50   1.394       .  A
C49          C54   1.413       .  A
C49         C322   1.482       .  S
C50          C51   1.397       .  A
C50          H69   1.086       .  S
C51          C52   1.415       .  A
C51         C257   1.480       .  S
C52          C53   1.421       .  A
C52          C59   1.407       .  A
C53          C54   1.422       .  A
C53          C58   1.419       .  A
C54          C55   1.405       .  A
C55          C56   1.395       .  A
C55          H65   1.083       .  S
C56          C57   1.405       .  A
C56          H66   1.083       .  S
C57          C58   1.421       .  A
C57          C64   1.412       .  A
C58          C61   1.423       .  A
C59          C60   1.396       .  A
C59          H67   1.082       .  S
C60          C61   1.404       .  A
C60          H68   1.083       .  S
C61          C62   1.414       .  A
C62          C63   1.393       .  A
C62         C238   1.480       .  S
C63          C64   1.394       .  A
C63          H70   1.086       .  S
C64         C294   1.477       .  S
N71          N72   1.319   1_465  A
N71          C75   1.341       .  A
N71         Cu79   2.059       .  S
N72          C73   1.344       .  A
N72         Cu78   2.065       .  S
C73          C74   1.386   1_655  A
C73          H76   1.081       .  S
C74          C75   1.385   1_545  A
C74         C201   1.480       .  S
C75          H77   1.082       .  S
Cu78         N81   2.066       .  S
Cu79         N89   2.058       .  S
Cu80         N82   2.100   1_465  S
Cu80         N88   2.099       .  S
N81          N82   1.322       .  A
N81          C85   1.344       .  A
N82          C83   1.349       .  A
C83          C84   1.392       .  A
C83          H86   1.081   1_545  S
C84          C85   1.383       .  A
C84         C173   1.489       .  S
C85          H87   1.081       .  S
N88          N89   1.322       .  A
N88          C92   1.346       .  A
N89          C90   1.344       .  A
C90          C91   1.382       .  A
C90          H93   1.081       .  S
C91          C92   1.391       .  A
C91         C145   1.485       .  S
C92          H94   1.081       .  S
N95          N96   1.321   1_545  A
N95          C99   1.346       .  A
N95        Cu103   2.069       .  S
N96          C97   1.342       .  A
N96        Cu102   2.066   1_455  S
C97          C98   1.382       .  A
C97         H100   1.081   1_455  S
C98          C99   1.384   1_565  A
C98         C210   1.475       .  S
C99         H101   1.082       .  S
Cu102       N105   2.067       .  S
Cu103       N113   2.069       .  S
Cu104       N106   2.084   1_455  S
Cu104       N112   2.084   1_565  S
N105        N106   1.322       .  A
N105        C109   1.345       .  A
N106        C107   1.345       .  A
C107        C108   1.388       .  A
C107        H110   1.081       .  S
C108        C109   1.384       .  A
C108        C266   1.484       .  S
C109        H111   1.081       .  S
N112        N113   1.321       .  A
N112        C116   1.349       .  A
N113        C114   1.341       .  A
C114        C115   1.385       .  A
C114        H117   1.081       .  S
C115        C116   1.390       .  A
C115        C229   1.487       .  S
C116        H118   1.081       .  S
C119        C120   1.391   1_556  A
C119        C124   1.411   1_545  A
C119        C182   1.476       .  S
C120        C121   1.391       .  A
C120        H139   1.087       .  S
C121        C122   1.409       .  A
C121        C378   1.471       .  S
C122        C123   1.420       .  A
C122        C129   1.405       .  A
C123        C124   1.423   1_544  A
C123        C128   1.416   1_545  A
C124        C125   1.403       .  A
C125        C126   1.394       .  A
C125        H135   1.083       .  S
C126        C127   1.406       .  A
C126        H136   1.082       .  S
C127        C128   1.420   1_556  A
C127        C134   1.410       .  A
C128        C131   1.423       .  A
C129        C130   1.395       .  A
C129        H137   1.083       .  S
C130        C131   1.405   1_545  A
C130        H138   1.083       .  S
C131        C132   1.414       .  A
C132        C133   1.393       .  A
C132        C341   1.481   1_565  S
C133        C134   1.396   1_554  A
C133        H140   1.086       .  S
C134        C154   1.475       .  S
C141        C142   1.398       .  A
C141        C146   1.402       .  A
C141        H151   1.086       .  S
C142        C143   1.409       .  A
C142        C147   1.476       .  S
C143        C144   1.396       .  A
C143        N148   1.429   1_565  S
C144        C145   1.403       .  A
C144        H149   1.086   1_565  S
C145        C146   1.418       .  A
C146        N150   1.428       .  S
C147        C152   1.409       .  A
C147        C156   1.402   1_565  A
N148        O163   1.262       .  A
N148        O164   1.262       .  A
N150        O161   1.262       .  A
N150        O162   1.262       .  A
C152        C153   1.395       .  A
C152        N157   1.428       .  S
C153        C154   1.400       .  A
C153        H158   1.086       .  S
C154        C155   1.409   1_565  A
C155        C156   1.398       .  A
C155        N159   1.428       .  S
C156        H160   1.086       .  S
N157        O167   1.262       .  A
N157        O168   1.262       .  A
N159        O165   1.262       .  A
N159        O166   1.262       .  A
C169        C170   1.400   1_565  A
C169        C174   1.403       .  A
C169        H179   1.086       .  S
C170        C171   1.412       .  A
C170        C175   1.485       .  S
C171        C172   1.402       .  A
C171        N176   1.429       .  S
C172        C173   1.403       .  A
C172        H177   1.086       .  S
C173        C174   1.417   1_545  A
C174        N178   1.428       .  S
C175        C180   1.411       .  A
C175        C184   1.406   1_545  A
N176        O191   1.262       .  A
N176        O192   1.262       .  A
N178        O189   1.262       .  A
N178        O190   1.262       .  A
C180        C181   1.400       .  A
C180        N185   1.428       .  S
C181        C182   1.399       .  A
C181        H186   1.084       .  S
C182        C183   1.407   1_545  A
C183        C184   1.403       .  A
C183        N187   1.430       .  S
C184        H188   1.083       .  S
N185        O195   1.262       .  A
N185        O196   1.261       .  A
N187        O193   1.262       .  A
N187        O194   1.262       .  A
C197        C198   1.399   1_645  A
C197        C202   1.398       .  A
C197        H207   1.086       .  S
C198        C199   1.406       .  A
C198        C203   1.471       .  S
C199        C200   1.396       .  A
C199        N204   1.428       .  S
C200        C201   1.405   1_565  A
C200        H205   1.085       .  S
C201        C202   1.414   1_455  A
C202        N206   1.428       .  S
C203        C208   1.406   1_455  A
C203        C212   1.400   1_565  A
N204        O219   1.262       .  A
N204        O220   1.262       .  A
N206        O217   1.262       .  A
N206        O218   1.262       .  A
C208        C209   1.397       .  A
C208        N213   1.428       .  S
C209        C210   1.403   1_655  A
C209        H214   1.086       .  S
C210        C211   1.412   1_565  A
C211        C212   1.400       .  A
C211        N215   1.428       .  S
C212        H216   1.086       .  S
N213        O223   1.262       .  A
N213        O224   1.262       .  A
N215        O221   1.262       .  A
N215        O222   1.262       .  A
C225        C226   1.404       .  A
C225        C230   1.402       .  A
C225        H235   1.086       .  S
C226        C227   1.409   1_455  A
C226        C231   1.487       .  S
C227        C228   1.399       .  A
C227        N232   1.429       .  S
C228        C229   1.406   1_655  A
C228        H233   1.085       .  S
C229        C230   1.414       .  A
C230        N234   1.428       .  S
C231        C236   1.413       .  A
C231        C240   1.404   1_455  A
N232        O247   1.262       .  A
N232        O248   1.262       .  A
N234        O245   1.262       .  A
N234        O246   1.262       .  A
C236        C237   1.400       .  A
C236        N241   1.429       .  S
C237        C238   1.401   1_455  A
C237        H242   1.086       .  S
C238        C239   1.408       .  A
C239        C240   1.400       .  A
C239        N243   1.428       .  S
C240        H244   1.085       .  S
N241        O251   1.262       .  A
N241        O252   1.262       .  A
N243        O249   1.262       .  A
N243        O250   1.262       .  A
C253        C254   1.400       .  A
C253        C258   1.396       .  A
C253        H263   1.086       .  S
C254        C255   1.411   1_655  A
C254        C259   1.479       .  S
C255        C256   1.402       .  A
C255        N260   1.428       .  S
C256        C257   1.402   1_455  A
C256        H261   1.086       .  S
C257        C258   1.409       .  A
C258        N262   1.428       .  S
C259        C264   1.411   1_655  A
C259        C268   1.401       .  A
N260        O275   1.262       .  A
N260        O276   1.261       .  A
N262        O273   1.261       .  A
N262        O274   1.262       .  A
C264        C265   1.399       .  A
C264        N269   1.429       .  S
C265        C266   1.404   1_455  A
C265        H270   1.085       .  S
C266        C267   1.414       .  A
C267        C268   1.400       .  A
C267        N271   1.428       .  S
C268        H272   1.086       .  S
N269        O279   1.262       .  A
N269        O280   1.262       .  A
N271        O277   1.262       .  A
N271        O278   1.262       .  A
C281        C282   1.398   1_455  A
C281        C286   1.400       .  A
C281        H291   1.086       .  S
C282        C283   1.410       .  A
C282        C287   1.477       .  S
C283        C284   1.398       .  A
C283        N288   1.429       .  S
C284        C285   1.403       .  A
C284        H289   1.086       .  S
C285        C286   1.416   1_655  A
C286        N290   1.428       .  S
C287        C292   1.410   1_655  A
C287        C296   1.401       .  A
N288        O303   1.262       .  A
N288        O304   1.262       .  A
N290        O301   1.262       .  A
N290        O302   1.262       .  A
C292        C293   1.398       .  A
C292        N297   1.429       .  S
C293        C294   1.401   1_455  A
C293        H298   1.086       .  S
C294        C295   1.408       .  A
C295        C296   1.399       .  A
C295        N299   1.428       .  S
C296        H300   1.086       .  S
N297        O307   1.262       .  A
N297        O308   1.262       .  A
N299        O305   1.262       .  A
N299        O306   1.262       .  A
C309        C310   1.403       .  A
C309        C314   1.403       .  A
C309        H319   1.086       .  S
C310        C311   1.410   1_455  A
C310        C315   1.485       .  S
C311        C312   1.399       .  A
C311        N316   1.429       .  S
C312        C313   1.406   1_655  A
C312        H317   1.085       .  S
C313        C314   1.415       .  A
C314        N318   1.428       .  S
C315        C320   1.413       .  A
C315        C324   1.402   1_455  A
N316        O331   1.262       .  A
N316        O332   1.262       .  A
N318        O329   1.262       .  A
N318        O330   1.262       .  A
C320        C321   1.402       .  A
C320        N325   1.429       .  S
C321        C322   1.401   1_455  A
C321        H326   1.086       .  S
C322        C323   1.408       .  A
C323        C324   1.398       .  A
C323        N327   1.427       .  S
C324        H328   1.086       .  S
N325        O335   1.262       .  A
N325        O336   1.262       .  A
N327        O333   1.261       .  A
N327        O334   1.261       .  A
C337        C338   1.402   1_565  A
C337        C342   1.399       .  A
C337        H347   1.086       .  S
C338        C339   1.411       .  A
C338        C343   1.482       .  S
C339        C340   1.402       .  A
C339        N344   1.428       .  S
C340        C341   1.401       .  A
C340        H345   1.086       .  S
C341        C342   1.410   1_545  A
C342        N346   1.429       .  S
C343        C348   1.409       .  A
C343        C352   1.399       .  A
N344        O359   1.262       .  A
N344        O360   1.261       .  A
N346        O357   1.262       .  A
N346        O358   1.262       .  A
C348        C349   1.401       .  A
C348        N353   1.429       .  S
C349        C350   1.407       .  A
C349        H354   1.085       .  S
C350        C351   1.420       .  A
C351        C352   1.403       .  A
C351        N355   1.428   1_545  S
C352        H356   1.086   1_545  S
N353        O363   1.262       .  A
N353        O364   1.262       .  A
N355        O361   1.262       .  A
N355        O362   1.262   1_565  A
C365        C366   1.398       .  A
C365        C370   1.402       .  A
C365        H375   1.086       .  S
C366        C367   1.410       .  A
C366        C371   1.480       .  S
C367        C368   1.399       .  A
C367        N372   1.429   1_545  S
C368        C369   1.404       .  A
C368        H373   1.085   1_545  S
C369        C370   1.420       .  A
C370        N374   1.429       .  S
C371        C376   1.411   1_545  A
C371        C380   1.405       .  A
N372        O387   1.262   1_565  A
N372        O388   1.262       .  A
N374        O385   1.262       .  A
N374        O386   1.262       .  A
C376        C377   1.397       .  A
C376        N381   1.428       .  S
C377        C378   1.398   1_565  A
C377        H382   1.084       .  S
C378        C379   1.405       .  A
C379        C380   1.401       .  A
C379        N383   1.430       .  S
C380        H384   1.084       .  S
N381        O391   1.262       .  A
N381        O392   1.261       .  A
N383        O389   1.262       .  A
N383        O390   1.262       .  A
C393        C394   1.399   1_565  A
C393        C398   1.400       .  A
C393        H403   1.086       .  S
C394        C395   1.405   1_655  A
C394        C399   1.471       .  S
C395        C396   1.396       .  A
C395        N400   1.429       .  S
C396        C397   1.406   1_445  A
C396        H401   1.086       .  S
C397        C398   1.414       .  A
C398        N402   1.428       .  S
C399        C404   1.405   1_645  A
C399        C408   1.400       .  A
N400        O415   1.262       .  A
N400        O416   1.262       .  A
N402        O413   1.262       .  A
N402        O414   1.262       .  A
C404        C405   1.395       .  A
C404        N409   1.428       .  S
C405        C406   1.403   1_465  A
C405        H410   1.086       .  S
C406        C407   1.414       .  A
C407        C408   1.400       .  A
C407        N411   1.429       .  S
C408        H412   1.086       .  S
N409        O419   1.262       .  A
N409        O420   1.262       .  A
N411        O417   1.262       .  A
N411        O418   1.262       .  A
