geometry optimzed in LAMMPS
_audit_creation_date              2020-11-30 
_audit_creation_method            'lammps2cif' 
_symmetry_space_group_name_H-M    'P1' 
_symmetry_Int_Tables_number       1 
_symmetry_cell_setting            triclinic 
loop_ 
_symmetry_equiv_pos_as_xyz 
  x,y,z 
_cell_length_a                    47.89960416850611 
_cell_length_b                    47.90546357402284 
_cell_length_c                    85.29225266782784 
_cell_angle_alpha                 90.01361977045636 
_cell_angle_beta                  90.13724005648426 
_cell_angle_gamma                 120.47838815528966 
loop_ 
_atom_site_label 
_atom_site_type_symbol 
_atom_site_fract_x 
_atom_site_fract_y 
_atom_site_fract_z 
_atom_site_charge 
O1          O  0.21069760  0.32287951  0.52231472    -0.78930
C2          C  0.10257345  0.30474585  0.49081813     1.00430
O3          O  0.11817742  0.29048037  0.49302591    -0.68040
O4          O  0.16849543  0.28417862  0.49836003    -0.71630
Al5        Al  0.14045185  0.29220717  0.51146226     1.48980
C6          C  0.19142004  0.30271342  0.48939480     0.95680
O7          O  0.21338357  0.39020675  0.49658624    -0.77860
O8          O  0.17883070  0.39384747  0.52383986    -0.71410
Al9        Al  0.20734876  0.35453562  0.50965281     1.90120
O10         O  0.16377535  0.37968721  0.49244165    -0.70480
O11         O  0.12365017  0.34065329  0.53057486    -0.70330
O12         O  0.10791528  0.32907288  0.49897861    -0.75990
O13         O  0.10646744  0.29003366  0.52444390    -0.74200
O14         O  0.16436336  0.33529785  0.51093209    -1.10330
O15         O  0.16068809  0.28952958  0.52996539    -0.69520
C16         C  0.19062042  0.29991724  0.53091298     1.01190
C17         C  0.19331773  0.39485934  0.48908808     0.97590
Al18       Al  0.14522693  0.35889809  0.51146070     1.55560
O19         O  0.20549627  0.33294401  0.49088854    -0.74150
C20         C  0.10394634  0.31092362  0.53237259     1.01760
C21         C  0.20358708  0.39716408  0.53096912     0.96640
O22         O  0.21430632  0.37852992  0.52825686    -0.79470
C23         C  0.35040702  0.40314177  0.38377516     0.06000
C24         C  0.34340638  0.37965793  0.39536319    -0.10150
C25         C  0.31112721  0.35545892  0.39839119     0.03500
C26         C  0.28616706  0.35477099  0.38918486    -0.08670
C27         C  0.29324936  0.37848194  0.37775803     0.05990
C28         C  0.32530831  0.40260567  0.37512613    -0.08090
H29         H  0.36302034  0.38022895  0.40199514     0.11590
H30         H  0.26126499  0.33554818  0.39051727     0.09120
H31         H  0.33083224  0.42039457  0.36598003     0.08960
C32         C  0.27194358  0.25731969  0.45018237     0.06000
C33         C  0.25011880  0.25887755  0.46053788    -0.10150
C34         C  0.23729842  0.27863487  0.45719073     0.03500
C35         C  0.24599385  0.29678071  0.44343805    -0.08670
C36         C  0.26818556  0.29613003  0.43296565     0.05990
C37         C  0.28143434  0.27628108  0.43639511    -0.08090
H38         H  0.24346150  0.24504046  0.47134129     0.11590
H39         H  0.23594698  0.31218624  0.44105955     0.09120
H40         H  0.29838381  0.27517991  0.42840286     0.08960
C41         C  0.04794873  0.14488224  0.38323881     0.06000
C42         C  0.03121718  0.15058074  0.39514448    -0.10150
C43         C  0.03866994  0.18239278  0.39856472     0.03500
C44         C  0.06225846  0.20815803  0.38941606    -0.08670
C45         C  0.07864836  0.20224073  0.37745298     0.05990
C46         C  0.07161225  0.17069789  0.37450821    -0.08090
H47         H  0.01264111  0.13040401  0.40176290     0.11590
H48         H  0.06734783  0.23267359  0.39127224     0.09120
H49         H  0.08383650  0.16608804  0.36503555     0.08960
C50         C  0.47570442  0.21833530  0.45029450     0.06000
C51         C  0.00113227  0.24325248  0.46006591    -0.10150
C52         C  0.03415417  0.25539741  0.45790060     0.03500
C53         C  0.04483412  0.24546751  0.44500337    -0.08670
C54         C  0.02273987  0.22310941  0.43412721     0.05990
C55         C  0.48253314  0.20220608  0.43850121    -0.08090
H56         H  0.49535092  0.25370157  0.46888987     0.11590
H57         H  0.07060939  0.25506578  0.44350442     0.09120
H58         H  0.46294710  0.18386258  0.43144891     0.08960
C59         C  0.23666611  0.01771946  0.44994279     0.06000
C60         C  0.23668331  0.49626821  0.45957520    -0.10150
C61         C  0.21199395  0.46440339  0.45699662     0.03500
C62         C  0.18890889  0.45752584  0.44524565    -0.08670
C63         C  0.19062268  0.48255667  0.43580013     0.05990
C64         C  0.21552307  0.00684478  0.43692072    -0.08090
H65         H  0.25400499  0.50165057  0.46897501     0.11590
H66         H  0.16923301  0.43280450  0.44384746     0.09120
H67         H  0.21466234  0.02431708  0.42919457     0.08960
C68         C  0.09077668  0.44399995  0.38553479     0.06000
C69         C  0.11106638  0.45327930  0.39882491    -0.10150
C70         C  0.13096557  0.43980835  0.40137533     0.03500
C71         C  0.13020938  0.41739427  0.39054983    -0.08670
C72         C  0.11053461  0.40876974  0.37725501     0.05990
C73         C  0.09078420  0.42194065  0.37476395    -0.08090
H74         H  0.11099012  0.47038183  0.40710206     0.11590
H75         H  0.14565873  0.40716164  0.39227394     0.09120
H76         H  0.07584047  0.41546941  0.36429547     0.08960
O77         O  0.15273703  0.37868684  0.31110141    -0.78930
C78         C  0.13052571  0.27204708  0.34538289     1.00430
O79         O  0.11703675  0.28799296  0.34221901    -0.68040
O80         O  0.11290203  0.33877286  0.33553316    -0.71630
Al81       Al  0.12027784  0.30925116  0.32325101     1.48980
C82         C  0.13174883  0.36205499  0.34432352     0.95680
O83         O  0.21888941  0.38151409  0.33836102    -0.77860
O84         O  0.22236224  0.34450500  0.31294094    -0.71410
Al85       Al  0.18367262  0.37537835  0.32461955     1.90120
O86         O  0.20578174  0.33173615  0.34418645    -0.70480
O87         O  0.16880267  0.29009709  0.30604440    -0.70330
O88         O  0.15482629  0.27595424  0.33767275    -0.75990
O89         O  0.11794158  0.27434730  0.31090593    -0.74200
O90         O  0.16338353  0.33231032  0.32425208    -1.10330
O91         O  0.11869115  0.32835662  0.30418014    -0.69520
C92         C  0.12957064  0.35822235  0.30262132     1.01190
C93         C  0.22243340  0.36161912  0.34667509     0.97590
Al94       Al  0.18605336  0.31224880  0.32509008     1.55560
O95         O  0.16196656  0.37577652  0.34287224    -0.74150
C96         C  0.13913319  0.27148841  0.30344390     1.01760
C97         C  0.22654434  0.36862582  0.30494935     0.96640
O98         O  0.20790359  0.37977763  0.30640157    -0.79470
C99         C  0.31339661  0.42349203  0.28375337     0.06000
C100        C  0.32111985  0.44100354  0.26960857    -0.10150
C101        C  0.35381007  0.46184134  0.26552304     0.03500
C102        C  0.37841919  0.46501999  0.27561647    -0.08670
C103        C  0.37067558  0.44780856  0.28972087     0.05990
C104        C  0.33826417  0.42712402  0.29375094    -0.08090
H105        H  0.30198860  0.43837392  0.26184499     0.11590
H106        H  0.40359484  0.48112096  0.27253645     0.09120
H107        H  0.33237190  0.41411673  0.30478783     0.08960
C108        C  0.38848879  0.07762585  0.21744939     0.06000
C109        C  0.41039998  0.07622625  0.20710332    -0.10150
C110        C  0.42327722  0.05653814  0.21043980     0.03500
C111        C  0.41462001  0.03834955  0.22416217    -0.08670
C112        C  0.39235133  0.03886456  0.23461091     0.05990
C113        C  0.37897774  0.05859513  0.23120596    -0.08090
H114        H  0.41703190  0.09008083  0.19630442     0.11590
H115        H  0.42472927  0.02299078  0.22652757     0.09120
H116        H  0.36192524  0.05953651  0.23918885     0.08960
O117        O  0.45264344  0.46004542  0.14044190    -0.78930
C118        C  0.05414394  0.03099583  0.17950067     1.00430
O119        O  0.04963151  0.00734534  0.17104792    -0.68040
O120        O  0.50050667  0.45942526  0.17795524    -0.71630
Al121      Al  0.01916992  0.47857967  0.15904087     1.48980
C122        C  0.47059179  0.44255142  0.18034595     0.95680
O123        O  0.45507637  0.00175043  0.17720716    -0.77860
O124        O  0.50095472  0.04427978  0.13820668    -0.71410
Al125      Al  0.45648889  0.48228415  0.15924874     1.90120
O126        O  0.49206902  0.05041197  0.16957014    -0.70480
O127        O  0.05414922  0.04825629  0.14585074    -0.70330
O128        O  0.03837712  0.04501650  0.17720525    -0.75990
O129        O  0.03726516  0.99778126  0.13924441    -0.74200
O130        O  0.49679159  0.99920959  0.15772851    -1.10330
O131        O  0.48726893  0.44451138  0.14656472    -0.69520
C132        C  0.46341743  0.44121037  0.13860932     1.01190
C133        C  0.46905595  0.03201437  0.17851217     0.97590
Al134      Al  0.01865375  0.04522772  0.15817110     1.55560
O135        O  0.45059639  0.44615597  0.17211554    -0.74150
C136        C  0.05695630  0.02759064  0.13778424     1.01760
C137        C  0.47107970  0.03374847  0.13690195     0.96640
O138        O  0.45067628  0.01107219  0.14555375    -0.79470
C139        C  0.10727139  0.14632432  0.26344088     0.06000
C140        C  0.11897279  0.17895747  0.26735440    -0.10150
C141        C  0.10910131  0.18666361  0.28140460     0.03500
C142        C  0.08787426  0.16195532  0.29147293    -0.08670
C143        C  0.07622215  0.12958987  0.28759434     0.05990
C144        C  0.08581901  0.12174412  0.27358735    -0.08090
H145        H  0.13540127  0.19805242  0.25952658     0.11590
H146        H  0.08068842  0.16794954  0.30244091     0.09120
H147        H  0.07672504  0.09656819  0.27059249     0.08960
C148        C  0.18423706  0.11127354  0.21625024     0.06000
C149        C  0.15822344  0.08881773  0.20708861    -0.10150
C150        C  0.12661696  0.08074622  0.21077342     0.03500
C151        C  0.12090787  0.09533447  0.22363799    -0.08670
C152        C  0.14689467  0.11827778  0.23292324     0.05990
C153        C  0.17861503  0.12585865  0.22920142    -0.08090
H154        H  0.16264585  0.07807727  0.19689259     0.11590
H155        H  0.09617821  0.08839050  0.22641538     0.09120
H156        H  0.19888391  0.14345703  0.23618698     0.08960
C157        C  0.07422167  0.38959493  0.28290824     0.06000
C158        C  0.05317869  0.37933100  0.26982064    -0.10150
C159        C  0.03247894  0.39199010  0.26740945     0.03500
C160        C  0.03312969  0.41442629  0.27821484    -0.08670
C161        C  0.05353797  0.42402510  0.29126433     0.05990
C162        C  0.07407248  0.41172653  0.29358467    -0.08090
H163        H  0.05334939  0.36222728  0.26157766     0.11590
H164        H  0.01718605  0.42412362  0.27661494     0.09120
H165        H  0.08961389  0.41900166  0.30386196     0.08960
C166        C  0.42633540  0.31340436  0.21654309     0.06000
C167        C  0.42778988  0.33903275  0.20801976    -0.10150
C168        C  0.45203353  0.37086001  0.21111829     0.03500
C169        C  0.47489760  0.37726566  0.22293534    -0.08670
C170        C  0.47342142  0.35183651  0.23198228     0.05990
C171        C  0.44919857  0.31971763  0.22846059    -0.08090
H172        H  0.41061241  0.33410314  0.19860387     0.11590
H173        H  0.49422395  0.40202245  0.22471046     0.09120
H174        H  0.44810290  0.29976400  0.23497146     0.08960
O175        O  0.45658059  0.45295993  0.36248608    -0.78930
C176        C  0.02847200  0.06009536  0.32024187     1.00430
O177        O  0.00476578  0.05591562  0.32850680    -0.68040
O178        O  0.45568065  0.00390508  0.32303543    -0.71630
Al179      Al  0.47559563  0.02317689  0.34217517     1.48980
C180        C  0.44059004  0.47085325  0.32242867     0.95680
O181        O  0.50212206  0.45892078  0.32564097    -0.77860
O182        O  0.04725871  0.50654151  0.36406868    -0.71410
Al183      Al  0.48056523  0.45838100  0.34408983     1.90120
O184        O  0.05209716  0.49561692  0.33256011    -0.70480
O185        O  0.04377763  0.05785950  0.35415005    -0.70330
O186        O  0.04225157  0.04413781  0.32267358    -0.75990
O187        O  0.49268995  0.04532560  0.36126480    -0.74200
O188        O  0.49964396  0.50137217  0.34468000    -1.10330
O189        O  0.44017455  0.48685860  0.35629569    -0.69520
C190        C  0.43706429  0.46299268  0.36409492     1.01190
C191        C  0.03317337  0.47145938  0.32420531     0.97590
Al192      Al  0.04075155  0.02298023  0.34142504     1.55560
O193        O  0.44490034  0.45138423  0.33065134    -0.74150
C194        C  0.02295105  0.06048712  0.36210141     1.01760
C195        C  0.03685760  0.47683861  0.36589411     0.96640
O196        O  0.01365979  0.45586843  0.35769372    -0.79470
O197        O  0.31775517  0.21273435  0.97621682    -0.78930
C198        C  0.30255402  0.10756844  0.00993141     1.00430
O199        O  0.28792039  0.12273484  0.00754541    -0.68040
O200        O  0.28045898  0.17209107  0.00158710    -0.71630
Al201      Al  0.28857964  0.14361438  0.98876929     1.48980
C202        C  0.29929320  0.19631649  0.00989985     0.95680
O203        O  0.38661550  0.21945539  0.00217648    -0.77860
O204        O  0.39080398  0.18324246  0.97670604    -0.71410
Al205      Al  0.35023401  0.21137514  0.98908059     1.90120
O206        O  0.37641939  0.17053593  0.00804053    -0.70480
O207        O  0.33815125  0.12724298  0.97026495    -0.70330
O208        O  0.32694254  0.11313217  0.00184867    -0.75990
O209        O  0.28720867  0.10948914  0.97611389    -0.74200
O210        O  0.33162146  0.16836876  0.98892724    -1.10330
O211        O  0.28418395  0.16187646  0.96996779    -0.69520
C212        C  0.29430262  0.19155690  0.96818901     1.01190
C213        C  0.39165284  0.20054801  0.01044515     0.97590
Al214      Al  0.35605168  0.15010954  0.98915119     1.55560
O215        O  0.32935118  0.21134378  0.00770496    -0.74150
C216        C  0.30847351  0.10732148  0.96831708     1.01760
C217        C  0.39350105  0.20686303  0.96881738     0.96640
O218        O  0.37366933  0.21651044  0.97045565    -0.79470
C219        C  0.25790727  0.27770234  0.05127374     0.06000
C220        C  0.25825915  0.25565411  0.04060650    -0.10150
C221        C  0.27849109  0.24304240  0.04312686     0.03500
C222        C  0.29838129  0.25228032  0.05637387    -0.08670
C223        C  0.29880435  0.27464917  0.06715758     0.05990
C224        C  0.27837981  0.28754255  0.06454497    -0.08090
H225        H  0.24314598  0.24871287  0.03018424     0.11590
H226        H  0.31415722  0.24243560  0.05812663     0.09120
H227        H  0.27801777  0.30458867  0.07275968     0.08960
C228        C  0.40427396  0.35571362  0.11760398     0.06000
C229        C  0.38137067  0.34921103  0.10571338    -0.10150
C230        C  0.35737951  0.31703822  0.10222224     0.03500
C231        C  0.35615560  0.29172349  0.11126012    -0.08670
C232        C  0.37910561  0.29836024  0.12306195     0.05990
C233        C  0.40312930  0.33026431  0.12614555    -0.08090
H234        H  0.38226270  0.36906555  0.09919605     0.11590
H235        H  0.33698841  0.26689707  0.10947900     0.09120
H236        H  0.42037213  0.33538509  0.13555384     0.08960
C237        C  0.21959668  0.02617478  0.06568240     0.06000
C238        C  0.24237665  0.04861150  0.05511447    -0.10150
C239        C  0.25359690  0.03850300  0.04251366     0.03500
C240        C  0.24232732  0.00562607  0.04031837    -0.08670
C241        C  0.21464558  0.47935008  0.05217872     0.05990
C242        C  0.19763148  0.48610820  0.06348987    -0.08090
H243        H  0.25131961  0.07427906  0.05661019     0.11590
H244        H  0.25080340  0.99787415  0.03036966     0.09120
H245        H  0.17908920  0.46655323  0.07042418     0.08960
C246        C  0.14185078  0.05184831  0.11690436     0.06000
C247        C  0.14695028  0.03448372  0.10503769    -0.10150
C248        C  0.17863397  0.04186233  0.10130020     0.03500
C249        C  0.20482703  0.06592944  0.11011608    -0.08670
C250        C  0.19958034  0.08293345  0.12200032     0.05990
C251        C  0.16819480  0.07604014  0.12525300    -0.08090
H252        H  0.12645101  0.01556379  0.09867756     0.11590
H253        H  0.22925626  0.07094708  0.10805353     0.09120
H254        H  0.16414577  0.08879732  0.13467380     0.08960
C255        C  0.01775119  0.23820023  0.04937086     0.06000
C256        C  0.49263257  0.24042336  0.04082468    -0.10150
C257        C  0.45952676  0.22066982  0.04354311     0.03500
C258        C  0.44876712  0.20058402  0.05667057    -0.08670
C259        C  0.47086394  0.19946318  0.06711625     0.05990
C260        C  0.01059851  0.21478595  0.06096065    -0.08090
H261        H  0.50086913  0.25566862  0.03047872     0.11590
H262        H  0.42293225  0.18513645  0.05856287     0.09120
H263        H  0.03012617  0.21508290  0.06755343     0.08960
C264        C  0.44502475  0.09234627  0.11625333     0.06000
C265        C  0.46154813  0.11530337  0.10442354    -0.10150
C266        C  0.45427468  0.13984692  0.10143525     0.03500
C267        C  0.43104171  0.14156475  0.11089903    -0.08670
C268        C  0.41458961  0.11853670  0.12261356     0.05990
C269        C  0.42149426  0.09394383  0.12521530    -0.08090
H270        H  0.47994662  0.11407312  0.09759335     0.11590
H271        H  0.42617943  0.16117005  0.10951902     0.09120
H272        H  0.40931573  0.07665825  0.13458834     0.08960
O273        O  0.37760520  0.15507502  0.18783625    -0.78930
C274        C  0.27151456  0.13487556  0.15319651     1.00430
O275        O  0.28816337  0.12180297  0.15558880    -0.68040
O276        O  0.33917568  0.11747557  0.16203570    -0.71630
Al277      Al  0.30870915  0.12309869  0.17459104     1.48980
C278        C  0.36297741  0.13749495  0.15387072     0.95680
O279        O  0.38064936  0.22302081  0.16205168    -0.77860
O280        O  0.34283513  0.22413291  0.18751152    -0.71410
Al281      Al  0.37449943  0.18689770  0.17498626     1.90120
O282        O  0.33087326  0.20996032  0.15601637    -0.70480
O283        O  0.28853207  0.16934812  0.19339614    -0.70330
O284        O  0.27501770  0.15823027  0.16161585    -0.75990
O285        O  0.27299460  0.11913372  0.18693227    -0.74200
O286        O  0.33143253  0.16621383  0.17482074    -1.10330
O287        O  0.32700292  0.11961633  0.19357815    -0.69520
C288        C  0.35683918  0.13114807  0.19576703     1.01190
C289        C  0.36082715  0.22679290  0.15376726     0.97590
Al290      Al  0.31101898  0.18857414  0.17469958     1.55560
O291        O  0.37625737  0.16740155  0.15623810    -0.74150
C292        C  0.26963034  0.13939966  0.19501064     1.01760
C293        C  0.36677281  0.22775272  0.19551373     0.96640
O294        O  0.37775999  0.20908595  0.19374718    -0.79470
O295        O  0.12421878  0.28657141  0.02842999    -0.78930
C296        C  0.19798915  0.39651757  0.99049904     1.00430
O297        O  0.17373068  0.39122977  0.99856142    -0.68040
O298        O  0.12423985  0.33496151  0.99121954    -0.71630
Al299      Al  0.14369463  0.35386582  0.01050042     1.48980
C300        C  0.10861350  0.30510877  0.98840241     0.95680
O301        O  0.16997514  0.29253501  0.99166026    -0.77860
O302        O  0.21374767  0.33975289  0.03009232    -0.71410
Al303      Al  0.14832460  0.29202152  0.01006262     1.90120
O304        O  0.21879124  0.33095608  0.99848836    -0.70480
O305        O  0.21187881  0.39283933  0.02436308    -0.70330
O306        O  0.21235854  0.38105704  0.99280695    -0.75990
O307        O  0.16072177  0.37504194  0.02975970    -0.74200
O308        O  0.16754443  0.33498047  0.01070912    -1.10330
O309        O  0.10807757  0.32063119  0.02220011    -0.69520
C310        C  0.10481743  0.29675271  0.02998889     1.01190
C311        C  0.20014617  0.30718750  0.98989501     0.97590
Al312      Al  0.21059946  0.35916401  0.01141272     1.55560
O313        O  0.11280476  0.28540142  0.99651934    -0.74150
C314        C  0.19032601  0.39454908  0.03212558     1.01760
C315        C  0.20314752  0.30991810  0.03159190     0.96640
O316        O  0.17984720  0.28933479  0.02324974    -0.79470
C317        C  0.09154149  0.14690087  0.88348034     0.06000
C318        C  0.11432304  0.15267706  0.89532585    -0.10150
C319        C  0.13879526  0.18459042  0.89887649     0.03500
C320        C  0.14069641  0.21028510  0.88994473    -0.08670
C321        C  0.11783381  0.20434634  0.87825373     0.05990
C322        C  0.09324991  0.17275947  0.87509276    -0.08090
H323        H  0.11301250  0.13250486  0.90172536     0.11590
H324        H  0.16035644  0.23489453  0.89172263     0.09120
H325        H  0.07612288  0.16818601  0.86569756     0.08960
C326        C  0.23936748  0.22368376  0.94895745     0.06000
C327        C  0.24014187  0.24647032  0.95950902    -0.10150
C328        C  0.22019336  0.25945083  0.95714483     0.03500
C329        C  0.19946983  0.24981689  0.94421995    -0.08670
C330        C  0.19798853  0.22674279  0.93358894     0.05990
C331        C  0.21814461  0.21352076  0.93599875    -0.08090
H332        H  0.25586222  0.25366612  0.96971730     0.11590
H333        H  0.18388475  0.25992782  0.94260951     0.09120
H334        H  0.21771643  0.19593722  0.92787619     0.08960
C335        C  0.35511272  0.45377562  0.88542048     0.06000
C336        C  0.34793533  0.47041729  0.89677245    -0.10150
C337        C  0.31575090  0.46283651  0.89911468     0.03500
C338        C  0.29114082  0.43896743  0.88948399    -0.08670
C339        C  0.29843317  0.42221694  0.87828933     0.05990
C340        C  0.33033766  0.42958324  0.87632857    -0.08090
H341        H  0.36733461  0.48923345  0.90372400     0.11590
H342        H  0.26640555  0.43372448  0.89030809     0.09120
H343        H  0.33606093  0.41726327  0.86732999     0.08960
C344        C  0.27703694  0.01974404  0.94912340     0.06000
C345        C  0.25470946  0.49840659  0.96054005    -0.10150
C346        C  0.24269300  0.46569293  0.95749964     0.03500
C347        C  0.25097035  0.45616092  0.94368777    -0.08670
C348        C  0.27213763  0.47922714  0.93290081     0.05990
C349        C  0.28740180  0.00911404  0.93616438    -0.08090
H350        H  0.24686412  0.00535244  0.96975806     0.11590
H351        H  0.24151089  0.43058207  0.94151545     0.09120
H352        H  0.30495212  0.02667776  0.92810785     0.08960
C353        C  0.05547747  0.41290326  0.88394440     0.06000
C354        C  0.04083573  0.39209760  0.89676432    -0.10150
C355        C  0.04910891  0.36856003  0.90062084     0.03500
C356        C  0.07278637  0.36680879  0.89150493    -0.08670
C357        C  0.08715179  0.38750918  0.87869550     0.05990
C358        C  0.07846153  0.41042298  0.87495269    -0.08090
H359        H  0.02271924  0.39389640  0.90356106     0.11590
H360        H  0.08048407  0.34970682  0.89423873     0.09120
H361        H  0.08912047  0.42591930  0.86481340     0.08960
C362        C  0.48134508  0.26296148  0.94924024     0.06000
C363        C  0.00662103  0.26573702  0.95985873    -0.10150
C364        C  0.03924657  0.28520754  0.95587624     0.03500
C365        C  0.04775258  0.30297170  0.94192484    -0.08670
C366        C  0.02375438  0.30188899  0.93204509     0.05990
C367        C  0.49158674  0.28210471  0.93557117    -0.08090
H368        H  0.00009190  0.25208796  0.97071681     0.11590
H369        H  0.07308744  0.31794614  0.93881455     0.09120
H370        H  0.47388634  0.28157892  0.92745727     0.08960
O371        O  0.11931470  0.29323056  0.80797463    -0.78930
C372        C  0.22808505  0.36860842  0.84676147     1.00430
O373        O  0.22357406  0.34427646  0.83885757    -0.68040
O374        O  0.16768825  0.29322169  0.84535873    -0.71630
Al375      Al  0.18679210  0.31350503  0.82632369     1.48980
C376        C  0.13778141  0.27644005  0.84775488     0.95680
O377        O  0.12357000  0.33618226  0.84550145    -0.77860
O378        O  0.16966372  0.38127989  0.80695064    -0.71410
Al379      Al  0.12366824  0.31583776  0.82670653     1.90120
O380        O  0.16026480  0.38573908  0.83873876    -0.70480
O381        O  0.22414086  0.38201853  0.81255437    -0.70330
O382        O  0.21185469  0.38202242  0.84417101    -0.75990
O383        O  0.20842837  0.33128350  0.80728216    -0.74200
O384        O  0.16674864  0.33620419  0.82616726    -1.10330
O385        O  0.15415400  0.27779874  0.81394339    -0.69520
C386        C  0.13029534  0.27458858  0.80600237     1.01190
C387        C  0.13712679  0.36627204  0.84744899     0.97590
Al388      Al  0.18962846  0.37922236  0.82560647     1.55560
O389        O  0.11782003  0.27996989  0.83952359    -0.74150
C390        C  0.22691654  0.36098559  0.80480549     1.01760
C391        C  0.13974824  0.37033793  0.80566857     0.96640
O392        O  0.11966666  0.34719248  0.81414234    -0.79470
C393        C  0.42614695  0.11115467  0.71780310     0.06000
C394        C  0.44692902  0.12128415  0.73093575    -0.10150
C395        C  0.46749650  0.10856097  0.73345968     0.03500
C396        C  0.46684911  0.08597415  0.72274251    -0.08670
C397        C  0.44661528  0.07643816  0.70961064     0.05990
C398        C  0.42625434  0.08892798  0.70717401    -0.08090
H399        H  0.44673444  0.13849050  0.73910176     0.11590
H400        H  0.48275231  0.07626015  0.72443307     0.09120
H401        H  0.41091704  0.08182251  0.69682758     0.08960
C402        C  0.07156890  0.18992748  0.78431327     0.06000
C403        C  0.04871757  0.18373568  0.77242422    -0.10150
C404        C  0.02451304  0.15165644  0.76890935     0.03500
C405        C  0.02299016  0.12621388  0.77793679    -0.08670
C406        C  0.04599704  0.13251299  0.78961881     0.05990
C407        C  0.07025466  0.16427826  0.79274657    -0.08090
H408        H  0.04980194  0.20371889  0.76594495     0.11590
H409        H  0.00357649  0.10147615  0.77621328     0.09120
H410        H  0.08749929  0.16913803  0.80212091     0.08960
O411        O  0.06009890  0.01427358  0.64578657    -0.78930
C412        C  0.46704959  0.02995912  0.67610110     1.00430
O413        O  0.49706506  0.04508921  0.67375518    -0.68040
O414        O  0.05616368  0.05005344  0.67157937    -0.71630
Al415      Al  0.02052079  0.04353749  0.65822688     1.48980
C416        C  0.06031948  0.03033131  0.67966270     0.95680
O417        O  0.49016449  0.44376114  0.67266221    -0.77860
O418        O  0.45325560  0.44265349  0.64566116    -0.71410
Al419      Al  0.02059726  0.48105957  0.65931003     1.90120
O420        O  0.45170847  0.45500515  0.67700475    -0.70480
O421        O  0.45142390  0.99502064  0.63620603    -0.70330
O422        O  0.44809802  0.00568970  0.66784030    -0.75990
O423        O  0.98911337  0.04674057  0.64517865    -0.74200
O424        O  0.49914046  0.00190272  0.65510080    -1.10330
O425        O  0.04458304  0.04905389  0.63984060    -0.69520
C426        C  0.06360461  0.03843974  0.63805768     1.01190
C427        C  0.46547527  0.43932912  0.68018189     0.97590
Al428      Al  0.45541996  0.47707149  0.65829237     1.55560
O429        O  0.04413939  0.00046663  0.67704813    -0.74150
C430        C  0.46145078  0.02465062  0.63431094     1.01760
C431        C  0.47464282  0.43999623  0.63829984     0.96640
O432        O  0.50419991  0.45844787  0.64112232    -0.79470
C433        C  0.31222698  0.39116013  0.78348030     0.06000
C434        C  0.32203298  0.38114820  0.77002866    -0.10150
C435        C  0.35544083  0.39418448  0.76705890     0.03500
C436        C  0.37821766  0.41661377  0.77766288    -0.08670
C437        C  0.36833558  0.42576748  0.79109522     0.05990
C438        C  0.33549707  0.41321009  0.79396382    -0.08090
H439        H  0.30404662  0.36401668  0.76192761     0.11590
H440        H  0.40389981  0.42653808  0.77562583     0.09120
H441        H  0.32800208  0.42024586  0.80452340     0.08960
C442        C  0.38321720  0.31300519  0.71892094     0.06000
C443        C  0.40688297  0.33836308  0.70999238    -0.10150
C444        C  0.41324390  0.36985425  0.71218950     0.03500
C445        C  0.39612973  0.37626700  0.72353710    -0.08670
C446        C  0.37282741  0.35113391  0.73308833     0.05990
C447        C  0.36611241  0.31924246  0.73044412    -0.08090
H448        H  0.41953558  0.33337382  0.70087674     0.11590
H449        H  0.40060069  0.40071920  0.72454162     0.09120
H450        H  0.34767300  0.29940688  0.73728191     0.08960
C451        C  0.11282353  0.42834377  0.78492589     0.06000
C452        C  0.12997636  0.45120926  0.77316219    -0.10150
C453        C  0.12291617  0.47573171  0.76979922     0.03500
C454        C  0.09920641  0.47754623  0.77883530    -0.08670
C455        C  0.08199393  0.45454758  0.79045456     0.05990
C456        C  0.08875853  0.42994915  0.79344121    -0.08090
H457        H  0.14869490  0.44990313  0.76665763     0.11590
H458        H  0.09448988  0.49718858  0.77717998     0.09120
H459        H  0.07605609  0.41269401  0.80275670     0.08960
C460        C  0.18889105  0.07445527  0.71671763     0.06000
C461        C  0.16370565  0.07348128  0.70795647    -0.10150
C462        C  0.13176940  0.04911510  0.71059207     0.03500
C463        C  0.12489333  0.02568944  0.72209220    -0.08670
C464        C  0.14991308  0.02689953  0.73140016     0.05990
C465        C  0.18210369  0.05122969  0.72840495    -0.08090
H466        H  0.16907844  0.09103270  0.69870746     0.11590
H467        H  0.10008583  0.00620598  0.72342372     0.09120
H468        H  0.20176682  0.05206720  0.73511007     0.08960
O469        O  0.00950379  0.05918343  0.85350300    -0.78930
C470        C  0.02978004  0.47485629  0.82069865     1.00430
O471        O  0.04329243  0.50488614  0.82275669    -0.68040
O472        O  0.04650260  0.05624057  0.82809387    -0.71630
Al473      Al  0.04021913  0.02071620  0.84139520     1.48980
C474        C  0.02677475  0.06006119  0.81981225     0.95680
O475        O  0.44297879  0.49736843  0.83208062    -0.77860
O476        O  0.44212617  0.45882455  0.85740868    -0.71410
Al477      Al  0.47828631  0.02375698  0.84084556     1.90120
O478        O  0.45333431  0.45893750  0.82591014    -0.70480
O479        O  0.99721330  0.45837294  0.86097014    -0.70330
O480        O  0.50372388  0.45265199  0.83127566    -0.75990
O481        O  0.04379013  0.98982552  0.85456837    -0.74200
O482        O  0.49851588  0.00125060  0.84115541    -1.10330
O483        O  0.04452946  0.04416858  0.85978612    -0.69520
C484        C  0.03326425  0.06259938  0.86158614     1.01190
C485        C  0.43766647  0.47319129  0.82383660     0.97590
Al486      Al  0.47581259  0.46081805  0.84432463     1.55560
O487        O  0.99684540  0.04338199  0.82210545    -0.74150
C488        C  0.02716412  0.46944553  0.86238146     1.01760
C489        C  0.44039265  0.47997003  0.86549693     0.96640
O490        O  0.45994557  0.50961519  0.86346841    -0.79470
O491        O  0.28048632  0.12369909  0.47272470    -0.78930
C492        C  0.39097001  0.19590224  0.51120484     1.00430
O493        O  0.38597353  0.17244583  0.50249578    -0.68040
O494        O  0.33006610  0.12172253  0.50902149    -0.71630
Al495      Al  0.34857673  0.14297987  0.49011301     1.48980
C496        C  0.30036932  0.10587372  0.51208387     0.95680
O497        O  0.28629062  0.16657746  0.51062312    -0.77860
O498        O  0.33353968  0.21384433  0.47287315    -0.71410
Al499      Al  0.28610219  0.14653211  0.49164144     1.90120
O500        O  0.32417643  0.21604678  0.50469930    -0.70480
O501        O  0.38719113  0.21240014  0.47810159    -0.70330
O502        O  0.37469757  0.20965841  0.50969768    -0.75990
O503        O  0.36965446  0.16203253  0.47109894    -0.74200
O504        O  0.32912822  0.16627232  0.49094931    -1.10330
O505        O  0.31540154  0.10804584  0.47775031    -0.69520
C506        C  0.29107760  0.10486366  0.47031955     1.01190
C507        C  0.30048654  0.19652524  0.51306282     0.97590
Al508      Al  0.35289927  0.20937467  0.49127511     1.55560
O509        O  0.28019598  0.11029590  0.50445713    -0.74150
C510        C  0.38943554  0.19185330  0.46969274     1.01760
C511        C  0.30364918  0.20281556  0.47115699     0.96640
O512        O  0.28306911  0.17884701  0.47914251    -0.79470
C513        C  0.22037519  0.24335532  0.55116499     0.06000
C514        C  0.24280346  0.24082853  0.54170734    -0.10150
C515        C  0.25173654  0.21791225  0.54510649     0.03500
C516        C  0.23814151  0.19730131  0.55802170    -0.08670
C517        C  0.21507047  0.19916308  0.56757677     0.05990
C518        C  0.20659626  0.22266730  0.56407827    -0.08090
H519        H  0.25281346  0.25626791  0.53150139     0.11590
H520        H  0.24592187  0.18015892  0.56050558     0.09120
H521        H  0.18892225  0.22450912  0.57123206     0.08960
C522        C  0.15010640  0.09427386  0.61696624     0.06000
C523        C  0.15799195  0.11240814  0.60302564    -0.10150
C524        C  0.19071059  0.13244070  0.59880688     0.03500
C525        C  0.21516815  0.13430264  0.60859726    -0.08670
C526        C  0.20725113  0.11673199  0.62259168     0.05990
C527        C  0.17480386  0.09675666  0.62673457    -0.08090
H528        H  0.13896165  0.11054306  0.59542059     0.11590
H529        H  0.24038442  0.14970000  0.60537826     0.09120
H530        H  0.16876029  0.08329775  0.63764257     0.08960
C531        C  0.01568445  0.27786817  0.55117693     0.06000
C532        C  0.49423175  0.25641042  0.54061424    -0.10150
C533        C  0.46129176  0.24350171  0.54348723     0.03500
C534        C  0.45126307  0.25246877  0.55693642    -0.08670
C535        C  0.47393448  0.27494604  0.56754890     0.05990
C536        C  0.00492546  0.28682657  0.56458965    -0.08090
H537        H  0.50190520  0.24960361  0.53004427     0.11590
H538        H  0.42555655  0.24237813  0.55897340     0.09120
H539        H  0.02244139  0.30369965  0.57293235     0.08960
C540        C  0.44986654  0.35610603  0.61703943     0.06000
C541        C  0.46611075  0.34972580  0.60514815    -0.10150
C542        C  0.45874845  0.31775815  0.60224462     0.03500
C543        C  0.43573120  0.29262402  0.61185769    -0.08670
C544        C  0.41956799  0.29919048  0.62364293     0.05990
C545        C  0.42652390  0.33081929  0.62613724    -0.08090
H546        H  0.48435811  0.36950578  0.59820768     0.11590
H547        H  0.43083503  0.26806308  0.61053775     0.09120
H548        H  0.41459221  0.33594023  0.63556526     0.08960
C549        C  0.25997284  0.48350827  0.55192484     0.06000
C550        C  0.25989001  0.00393692  0.54119089    -0.10150
C551        C  0.28389810  0.03613767  0.54372284     0.03500
C552        C  0.30747961  0.04370677  0.55533321    -0.08670
C553        C  0.30694425  0.01903256  0.56463990     0.05990
C554        C  0.28030581  0.49386839  0.56529637    -0.08090
H555        H  0.24217782  0.99800921  0.53192600     0.11590
H556        H  0.32659809  0.06867703  0.55671918     0.09120
H557        H  0.28016564  0.47613393  0.57321154     0.08960
C558        C  0.40722191  0.05723023  0.61467479     0.06000
C559        C  0.38694277  0.04821713  0.60138077    -0.10150
C560        C  0.36744369  0.06216457  0.59881524     0.03500
C561        C  0.36866108  0.08483060  0.60963865    -0.08670
C562        C  0.38839141  0.09323161  0.62291935     0.05990
C563        C  0.40765685  0.07953354  0.62541525    -0.08090
H564        H  0.38671972  0.03093714  0.59312291     0.11590
H565        H  0.35353331  0.09542844  0.60792973     0.09120
H566        H  0.42261695  0.08583082  0.63587310     0.08960
O567        O  0.29395563  0.12201474  0.69500546    -0.78930
C568        C  0.36886271  0.22955279  0.65579802     1.00430
O569        O  0.34425911  0.22488608  0.66342818    -0.68040
O570        O  0.29413890  0.16841577  0.65684664    -0.71630
Al571      Al  0.31371944  0.18838918  0.67593382     1.48980
C572        C  0.27778312  0.13839239  0.65463747     0.95680
O573        O  0.33856521  0.12571665  0.65821179    -0.77860
O574        O  0.38245388  0.17354908  0.69666219    -0.71410
Al575      Al  0.31736901  0.12605209  0.67660459     1.90120
O576        O  0.38771088  0.16357962  0.66507446    -0.70480
O577        O  0.38181256  0.22703787  0.69035001    -0.70330
O578        O  0.38294556  0.21416296  0.65889868    -0.75990
O579        O  0.33066266  0.21065385  0.69491133    -0.74200
O580        O  0.33710236  0.16907632  0.67680089    -1.10330
O581        O  0.27798355  0.15596511  0.68811588    -0.69520
C582        C  0.27485508  0.13261562  0.69638513     1.01190
C583        C  0.36873325  0.14004173  0.65640747     0.97590
Al584      Al  0.38014923  0.19267230  0.67771384     1.55560
O585        O  0.28158985  0.11903797  0.66321341    -0.74150
C586        C  0.36020136  0.22942638  0.69770808     1.01760
C587        C  0.37184805  0.14373756  0.69818257     0.96640
O588        O  0.34875557  0.12320305  0.68975523    -0.79470
C589        C  0.38668820  0.11390044  0.63459288    -0.10400
C590        C  0.38116383  0.12814299  0.64458939    -0.11960
C591        C  0.34576467  0.05469386  0.58502643    -0.13560
C592        C  0.33126347  0.02626752  0.57728743    -0.28740
H593        H  0.33919118  0.07266070  0.58208684     0.15460
H594        H  0.33524726  0.00695073  0.58112579     0.16040
C595        C  0.39780495  0.27399829  0.63410024    -0.10400
C596        C  0.38233152  0.25359066  0.64374492    -0.11960
C597        C  0.46086828  0.28253128  0.58162957    -0.13560
C598        C  0.47534617  0.31111368  0.58923480    -0.28740
H599        H  0.43639325  0.26434704  0.58492535     0.15460
H600        H  0.49842758  0.33070898  0.58506345     0.16040
C601        C  0.25331306  0.12653789  0.64269953    -0.10400
C602        C  0.23241304  0.12059233  0.63316622    -0.11960
C603        C  0.20030452  0.17784536  0.58153617    -0.13560
C604        C  0.20019411  0.14995522  0.58374106    -0.28740
H605        H  0.18975962  0.18572504  0.59053483     0.15460
H606        H  0.21020235  0.14104255  0.57503916     0.16040
C607        C  0.28794166  0.20811644  0.52507502    -0.10400
C608        C  0.27306255  0.21396372  0.53462795    -0.11960
C609        C  0.28994441  0.08147834  0.52401662    -0.10400
C610        C  0.28584576  0.06101528  0.53347905    -0.11960
C611        C  0.41645857  0.20842639  0.52259680    -0.10400
C612        C  0.43753404  0.22285731  0.53214190    -0.11960
C613        C  0.24727375  0.11560881  0.70636790    -0.10400
C614        C  0.22165393  0.09777094  0.71249966    -0.11960
C615        C  0.05925051  0.45777696  0.80018363    -0.10400
C616        C  0.04318582  0.46326007  0.80914845    -0.11960
C617        C  0.14039102  0.49914132  0.75686545    -0.13560
C618        C  0.12620583  0.51275203  0.74878034    -0.28740
H619        H  0.16385404  0.50317984  0.75321261     0.15460
H620        H  0.16216556  0.99916732  0.74825779     0.16040
C621        C  0.37506515  0.28058730  0.71484939    -0.10400
C622        C  0.36903478  0.25581327  0.70833353    -0.11960
C623        C  0.39203116  0.44627819  0.80247424    -0.10400
C624        C  0.41265969  0.46060805  0.81221696    -0.11960
C625        C  0.35538324  0.35766190  0.74580665    -0.13560
C626        C  0.36859580  0.38675314  0.75293006    -0.28740
H627        H  0.33287706  0.33765954  0.75027359     0.15460
H628        H  0.39259518  0.40562810  0.74941555     0.16040
C629        C  0.10631008  0.04654790  0.70060591    -0.10400
C630        C  0.08509936  0.04154554  0.69142868    -0.11960
C631        C  0.43549704  0.39500500  0.70183349    -0.10400
C632        C  0.45149736  0.41526963  0.69221580    -0.11960
C633        C  0.44383892  0.03413201  0.62410269    -0.10400
C634        C  0.42705900  0.04330388  0.61812007    -0.11960
C635        C  0.11699361  0.07326512  0.62176914    -0.10400
C636        C  0.09134586  0.05603869  0.62811193    -0.11960
C637        C  0.45865321  0.38861159  0.62120292    -0.10400
C638        C  0.46540584  0.41359797  0.62767599    -0.11960
C639        C  0.03802805  0.08508252  0.80823637    -0.10400
C640        C  0.04314868  0.10658765  0.79927627    -0.11960
C641        C  0.38866891  0.13330904  0.70838918    -0.10400
C642        C  0.40551686  0.12417959  0.71433838    -0.11960
C643        C  0.45467911  0.04174350  0.68805184    -0.10400
C644        C  0.44886947  0.05586931  0.69802185    -0.11960
C645        C  0.48944530  0.11686423  0.74720366    -0.13560
C646        C  0.50259935  0.14486164  0.75532771    -0.28740
H647        H  0.49705883  0.09961018  0.74998198     0.15460
H648        H  0.49782579  0.16379055  0.75173952     0.16040
C649        C  0.27866920  0.37871521  0.78745677    -0.10400
C650        C  0.25342845  0.37073150  0.79407819    -0.11960
C651        C  0.12141266  0.40473983  0.78942138    -0.10400
C652        C  0.12889780  0.38689679  0.79563094    -0.11960
C653        C  0.11316860  0.24749268  0.79563752    -0.10400
C654        C  0.09504150  0.22241313  0.78904167    -0.11960
C655        C  0.04569205  0.43543370  0.87900483    -0.10400
C656        C  0.03792336  0.45281997  0.87249139    -0.11960
C657        C  0.12431890  0.37797875  0.85924464    -0.10400
C658        C  0.10903779  0.38367199  0.86860564    -0.11960
C659        C  0.03355154  0.34710053  0.91448300    -0.13560
C660        C  0.03386425  0.31948880  0.91700391    -0.28740
H661        H  0.02219525  0.35472041  0.92317206     0.15460
H662        H  0.04473990  0.31088850  0.90862284     0.16040
C663        C  0.41355717  0.47045931  0.87582110    -0.10400
C664        C  0.38798973  0.46308484  0.88179965    -0.11960
C665        C  0.27359380  0.39923598  0.86793041    -0.10400
C666        C  0.25293850  0.38275220  0.85849783    -0.11960
C667        C  0.27927012  0.46660157  0.91853178    -0.13560
C668        C  0.30855656  0.47995933  0.91170637    -0.28740
H669        H  0.26036455  0.44275910  0.91479279     0.15460
H670        H  0.32839290  0.50229433  0.91648383     0.16040
C671        C  0.04992796  0.08963612  0.87198356    -0.10400
C672        C  0.06792402  0.11460050  0.87866483    -0.11960
C673        C  0.12672337  0.25172054  0.85943898    -0.10400
C674        C  0.12128593  0.23036257  0.86852758    -0.11960
C675        C  0.16232999  0.19082057  0.91177421    -0.13560
C676        C  0.17571994  0.21863690  0.92002533    -0.28740
H677        H  0.16694447  0.17166880  0.91513276     0.15460
H678        H  0.16817053  0.23602329  0.91744105     0.16040
C679        C  0.21030962  0.42120488  0.97880909    -0.10400
C680        C  0.22367364  0.44181459  0.96902455    -0.11960
C681        C  0.21299645  0.29526248  0.97829395    -0.10400
C682        C  0.21876439  0.28068186  0.96858185    -0.11960
C683        C  0.06400088  0.28839427  0.96657949    -0.10400
C684        C  0.08454625  0.29380287  0.97625307    -0.11960
C685        C  0.37667210  0.12660863  0.14216749    -0.10400
C686        C  0.39245962  0.12160889  0.13283130    -0.11960
C687        C  0.05070638  0.26109411  0.04529668    -0.10400
C688        C  0.07676911  0.27888936  0.03956826    -0.11960
C689        C  0.47127132  0.16355587  0.08854525    -0.13560
C690        C  0.45707915  0.17768534  0.08086912    -0.28740
H691        H  0.49455819  0.16755486  0.08460834     0.15460
H692        H  0.43246086  0.17088222  0.08395844     0.16040
C693        C  0.24705554  0.12128673  0.14122724    -0.10400
C694        C  0.22593118  0.10542920  0.13186341    -0.11960
C695        C  0.20608338  0.44666235  0.04854734    -0.10400
C696        C  0.19934051  0.42128405  0.04250250    -0.11960
C697        C  0.18429286  0.02440113  0.08827703    -0.13560
C698        C  0.21087540  0.03994542  0.07921561    -0.28740
H699        H  0.16583643  0.99959954  0.08562054     0.15460
H700        H  0.22713934  0.06561195  0.08138319     0.16040
C701        C  0.37188512  0.25170805  0.14210902    -0.10400
C702        C  0.37652187  0.27274765  0.13291969    -0.11960
C703        C  0.23716834  0.29062431  0.04774113    -0.10400
C704        C  0.22015162  0.29953899  0.04174573    -0.11960
C705        C  0.32034712  0.28244135  0.08105468    -0.13560
C706        C  0.33376800  0.31036667  0.08924155    -0.28740
H707        H  0.32760677  0.26491833  0.08383745     0.15460
H708        H  0.32930361  0.32950897  0.08566177     0.16040
C709        C  0.28084291  0.22246535  0.03157495    -0.10400
C710        C  0.28675506  0.20821970  0.02171201    -0.11960
C711        C  0.28992578  0.08267388  0.02163028    -0.10400
C712        C  0.27500015  0.06200676  0.03127170    -0.11960
C713        C  0.41606186  0.21298828  0.02238707    -0.10400
C714        C  0.43637090  0.21875109  0.03221295    -0.11960
C715        C  0.42138554  0.22508140  0.95900085    -0.10400
C716        C  0.44753926  0.24244915  0.95310578    -0.11960
C717        C  0.29890783  0.07978681  0.95831455    -0.10400
C718        C  0.29009509  0.05361873  0.95251374    -0.11960
C719        C  0.27670302  0.20122696  0.95809947    -0.10400
C720        C  0.25970607  0.21028920  0.95227795    -0.11960
C721        C  0.40258470  0.28078836  0.21195071    -0.10400
C722        C  0.38413280  0.25540238  0.20561559    -0.11960
C723        C  0.05149868  0.44476069  0.30280561    -0.10400
C724        C  0.04570599  0.45919721  0.31259684    -0.11960
C725        C  0.99673311  0.35634235  0.24541840    -0.13560
C726        C  0.01064643  0.38425570  0.25363346    -0.28740
H727        H  0.50138612  0.33916926  0.24858321     0.15460
H728        H  0.00361261  0.40199356  0.25095263     0.16040
C729        C  0.21663931  0.12068854  0.21141005    -0.10400
C730        C  0.24204403  0.12855149  0.20505400    -0.11960
C731        C  0.04123500  0.08422294  0.30822940    -0.10400
C732        C  0.05577409  0.10462907  0.29845274    -0.11960
C733        C  0.14132492  0.13335391  0.24694248    -0.13560
C734        C  0.11545833  0.13712726  0.24839157    -0.28740
H735        H  0.15867220  0.14098906  0.25653357     0.15460
H736        H  0.09818400  0.13067307  0.23887968     0.16040
C737        C  0.45493823  0.39663204  0.20125767    -0.10400
C738        C  0.45972544  0.41773173  0.19206500    -0.11960
C739        C  0.10029101  0.05910402  0.20067390    -0.10400
C740        C  0.07885050  0.04385036  0.19136085    -0.11960
C741        C  0.42772910  0.38835913  0.12214632    -0.10400
C742        C  0.44599619  0.41374128  0.12847775    -0.11960
C743        C  0.08466137  0.03753709  0.12790165    -0.10400
C744        C  0.10973120  0.04385250  0.12159974    -0.11960
C745        C  0.46073759  0.05046941  0.12666067    -0.10400
C746        C  0.45366131  0.06860644  0.12042305    -0.11960
C747        C  0.36706790  0.11470208  0.20639681    -0.10400
C748        C  0.37561114  0.09803160  0.21308585    -0.11960
C749        C  0.45723476  0.04538489  0.18986245    -0.10400
C750        C  0.44340501  0.05270988  0.19926898    -0.11960
C751        C  0.41659037  0.45913960  0.31025569    -0.10400
C752        C  0.39590079  0.45274934  0.30053024    -0.11960
C753        C  0.35617476  0.00266061  0.25603312    -0.13560
C754        C  0.38522999  0.01887532  0.24895735    -0.28740
H755        H  0.33618202  0.00483239  0.25145482     0.15460
H756        H  0.40420860  0.01424412  0.25258252     0.16040
C757        C  0.28028376  0.40238776  0.28864564    -0.10400
C758        C  0.25456351  0.38552845  0.29504526    -0.11960
C759        C  0.11275997  0.36863739  0.29233516    -0.10400
C760        C  0.09541456  0.37711691  0.28629547    -0.11960
C761        C  0.12103085  0.21963304  0.28617410    -0.10400
C762        C  0.12940338  0.24484464  0.29286426    -0.11960
C763        C  0.07064208  0.45759108  0.38212007    -0.10400
C764        C  0.05394569  0.46690138  0.37618494    -0.11960
C765        C  0.11284466  0.38840493  0.36561585    -0.10400
C766        C  0.11903876  0.37428153  0.35583668    -0.11960
C767        C  0.25649250  0.05158243  0.45386025    -0.10400
C768        C  0.27332749  0.07754805  0.46007126    -0.11960
C769        C  0.15244939  0.44734488  0.41521273    -0.13560
C770        C  0.16682699  0.47575102  0.42296315    -0.28740
H771        H  0.15895994  0.42935863  0.41822420     0.15460
H772        H  0.16307401  0.49517900  0.41905846     0.16040
C773        C  0.44288944  0.20940468  0.45401796    -0.10400
C774        C  0.41709295  0.20205695  0.45978234    -0.11960
C775        C  0.03286368  0.08749455  0.37243173    -0.10400
C776        C  0.03955883  0.11257662  0.37881096    -0.11960
C777        C  0.10077555  0.22792087  0.36723917    -0.10400
C778        C  0.11661688  0.24822334  0.35757575    -0.11960
C779        C  0.03669163  0.21541916  0.42034773    -0.13560
C780        C  0.02153047  0.18829321  0.41159989    -0.28740
H781        H  0.06201567  0.23254732  0.41789505     0.15460
H782        H  0.99726259  0.16926392  0.41469451     0.16040
C783        C  0.28466519  0.23671194  0.45450435    -0.10400
C784        C  0.29321772  0.21978867  0.46095798    -0.11960
C785        C  0.38329479  0.42655275  0.37966620    -0.10400
C786        C  0.40910320  0.44487409  0.37377830    -0.11960
C787        C  0.26793003  0.37662641  0.36782618    -0.10400
C788        C  0.24705287  0.37245924  0.35856747    -0.11960
C789        C  0.30421921  0.33148160  0.41122330    -0.13560
C790        C  0.27541285  0.31614428  0.41858247    -0.28740
H791        H  0.32395726  0.32868318  0.41562243     0.15460
H792        H  0.25681138  0.32143573  0.41508257     0.16040
C793        C  0.07757650  0.29181340  0.47914368    -0.10400
C794        C  0.05722268  0.27669836  0.46936176    -0.11960
C795        C  0.20878636  0.43922602  0.46735612    -0.10400
C796        C  0.20386427  0.41875806  0.47694514    -0.11960
C797        C  0.20316946  0.28956952  0.47784210    -0.10400
C798        C  0.21709230  0.28245453  0.46836227    -0.11960
C799        C  0.22166619  0.42425506  0.54136331    -0.10400
C800        C  0.23921605  0.44978041  0.54785325    -0.11960
C801        C  0.07613055  0.30081785  0.54223492    -0.10400
C802        C  0.04968191  0.29139176  0.54783547    -0.11960
C803        C  0.21009914  0.26575943  0.54669866    -0.10400
C804        C  0.20160327  0.28304148  0.54069864    -0.11960
O805        O  0.21208926  0.81902853  0.52312686    -0.78930
C806        C  0.10818686  0.80161159  0.48703587     1.00430
O807        O  0.12450958  0.78821114  0.48938816    -0.68040
O808        O  0.17472904  0.78294406  0.49600251    -0.71630
Al809      Al  0.14414251  0.78850879  0.50851523     1.48980
C810        C  0.19938536  0.80329322  0.48838999     0.95680
O811        O  0.21848997  0.88847951  0.49763879    -0.77860
O812        O  0.17928102  0.88967788  0.52155488    -0.71410
Al813      Al  0.21056194  0.85160540  0.51034292     1.90120
O814        O  0.16954858  0.87598114  0.49011054    -0.70480
O815        O  0.12453624  0.83570585  0.52695097    -0.70330
O816        O  0.11227955  0.82525020  0.49532743    -0.75990
O817        O  0.10849141  0.78518572  0.52067746    -0.74200
O818        O  0.16757336  0.83155050  0.50918903    -1.10330
O819        O  0.16099597  0.78345914  0.52760548    -0.69520
C820        C  0.19051067  0.79478852  0.53052988     1.01190
C821        C  0.19980437  0.89276912  0.48874704     0.97590
Al822      Al  0.14803117  0.85472625  0.50856669     1.55560
O823        O  0.21371570  0.83291860  0.49163799    -0.74150
C824        C  0.10540865  0.80582240  0.52860915     1.01760
C825        C  0.20187855  0.89237811  0.53028764     0.96640
O826        O  0.21216305  0.87297926  0.52919335    -0.79470
C827        C  0.35154812  0.91202209  0.38462588     0.06000
C828        C  0.34450857  0.89469035  0.39876447    -0.10150
C829        C  0.31213196  0.87234122  0.40266653     0.03500
C830        C  0.28710300  0.86772497  0.39246746    -0.08670
C831        C  0.29428843  0.88533057  0.37850000     0.05990
C832        C  0.32639924  0.90729901  0.37459248    -0.08090
H833        H  0.36396275  0.89819955  0.40653781     0.11590
H834        H  0.26212817  0.85045756  0.39540977     0.09120
H835        H  0.33187025  0.92036328  0.36357873     0.08960
C836        C  0.27829618  0.75851456  0.44820042     0.06000
C837        C  0.25689010  0.76157553  0.45816037    -0.10150
C838        C  0.24820093  0.78479018  0.45516213     0.03500
C839        C  0.26122840  0.80537796  0.44218299    -0.08670
C840        C  0.28272290  0.80238067  0.43200444     0.05990
C841        C  0.29089613  0.77854292  0.43502196    -0.08090
H842        H  0.24755126  0.74634366  0.46847710     0.11590
H843        H  0.25429945  0.82331001  0.43993182     0.09120
H844        H  0.30759682  0.77614413  0.42736761     0.08960
C845        C  0.05392650  0.64766816  0.38520974     0.06000
C846        C  0.04429857  0.65772839  0.39865400    -0.10150
C847        C  0.05736377  0.69113840  0.40149848     0.03500
C848        C  0.07951117  0.71369275  0.39083458    -0.08670
C849        C  0.08838245  0.70353448  0.37743352     0.05990
C850        C  0.07573534  0.67065053  0.37461655    -0.08090
H851        H  0.02740141  0.63990047  0.40683240     0.11590
H852        H  0.08945102  0.73941638  0.39280096     0.09120
H853        H  0.08250834  0.66291277  0.36405336     0.08960
C854        C  0.47953800  0.71938907  0.45137734     0.06000
C855        C  0.00417933  0.74290103  0.45904021    -0.10150
C856        C  0.03556561  0.74917544  0.45649522     0.03500
C857        C  0.04127547  0.73151688  0.44520905    -0.08670
C858        C  0.01565874  0.70793441  0.43596616     0.05990
C859        C  0.48562246  0.70256958  0.43968291    -0.08090
H860        H  0.50022342  0.75583431  0.46946569     0.11590
H861        H  0.06565396  0.73587390  0.44395000     0.09120
H862        H  0.46563058  0.68381408  0.43298262     0.08960
C863        C  0.23826750  0.52141221  0.45058005     0.06000
C864        C  0.23803186  0.99528947  0.45995954    -0.10150
C865        C  0.21878825  0.96219667  0.45703761     0.03500
C866        C  0.19812710  0.95131610  0.44408045    -0.08670
C867        C  0.19605175  0.97325486  0.43393105     0.05990
C868        C  0.21524064  0.51467387  0.43876383    -0.08090
H869        H  0.25369087  0.00359345  0.47019785     0.11590
H870        H  0.18308352  0.92545921  0.44205717     0.09120
H871        H  0.21643892  0.53433339  0.43193578     0.08960
C872        C  0.09075946  0.94765841  0.38336998     0.06000
C873        C  0.11313932  0.96408595  0.39548730    -0.10150
C874        C  0.13721451  0.95643951  0.39904597     0.03500
C875        C  0.13906140  0.93286964  0.38987674    -0.08670
C876        C  0.11661782  0.91648912  0.37786732     0.05990
C877        C  0.09246041  0.92380079  0.37469705    -0.08090
H878        H  0.11185880  0.98274223  0.40208472     0.11590
H879        H  0.15840080  0.92774969  0.39169025     0.09120
H880        H  0.07564680  0.91170543  0.36510157     0.08960
O881        O  0.15300215  0.88073098  0.31274043    -0.78930
C882        C  0.13504316  0.77326284  0.34514573     1.00430
O883        O  0.12169977  0.78995452  0.34381022    -0.68040
O884        O  0.11598228  0.84081816  0.33865947    -0.71630
Al885      Al  0.12159377  0.81126946  0.32534472     1.48980
C886        C  0.13604175  0.86479889  0.34675959     0.95680
O887        O  0.22106094  0.88309584  0.33775194    -0.77860
O888        O  0.22217117  0.84673888  0.31123711    -0.71410
Al889      Al  0.18500913  0.87747179  0.32511921     1.90120
O890        O  0.20923203  0.83316795  0.34253752    -0.70480
O891        O  0.16728563  0.79292928  0.30482417    -0.70330
O892        O  0.15788770  0.77752986  0.33623028    -0.75990
O893        O  0.11738799  0.77639603  0.31226922    -0.74200
O894        O  0.16465518  0.83441875  0.32469232    -1.10330
O895        O  0.11704758  0.83017552  0.30694885    -0.69520
C896        C  0.12886019  0.86004580  0.30488774     1.01190
C897        C  0.22506519  0.86293211  0.34555337     0.97590
Al898      Al  0.18730541  0.81431802  0.32373866     1.55560
O899        O  0.16585768  0.87848644  0.34413259    -0.74150
C900        C  0.13726140  0.77370444  0.30357636     1.01760
C901        C  0.22542142  0.87094147  0.30374209     0.96640
O902        O  0.20694719  0.88192180  0.30614906    -0.79470
C903        C  0.31076186  0.93030862  0.28316190     0.06000
C904        C  0.31740820  0.95383614  0.27164715    -0.10150
C905        C  0.34952349  0.97859019  0.26876756     0.03500
C906        C  0.37462388  0.97976990  0.27804085    -0.08670
C907        C  0.36791338  0.95598807  0.28934851     0.05990
C908        C  0.33604714  0.93129489  0.29184152    -0.08090
H909        H  0.29765287  0.95293289  0.26499887     0.11590
H910        H  0.39935849  0.99944823  0.27688126     0.09120
H911        H  0.33078687  0.91348770  0.30094543     0.08960
C912        C  0.38634650  0.57470235  0.21900006     0.06000
C913        C  0.40907279  0.57263738  0.20958594    -0.10150
C914        C  0.41817352  0.54980297  0.21286027     0.03500
C915        C  0.40424035  0.52864608  0.22561551    -0.08670
C916        C  0.38114429  0.53041001  0.23520165     0.05990
C917        C  0.37261910  0.55388735  0.23184104    -0.08090
H918        H  0.41918017  0.58837995  0.19948293     0.11590
H919        H  0.41174759  0.51125347  0.22808279     0.09120
H920        H  0.35484050  0.55551352  0.23901371     0.08960
O921        O  0.44758202  0.95549816  0.14028172    -0.78930
C922        C  0.06005344  0.53309163  0.17974330     1.00430
O923        O  0.05598475  0.50934399  0.17148465    -0.68040
O924        O  0.49759128  0.95568670  0.17668819    -0.71630
Al925      Al  0.01362057  0.97848712  0.15761683     1.48980
C926        C  0.46798136  0.94014413  0.17985678     0.95680
O927        O  0.45549653  0.50191713  0.17808057    -0.77860
O928        O  0.50324928  0.54914155  0.14030269    -0.71410
Al929      Al  0.45382533  0.97976976  0.15869742     1.90120
O930        O  0.49264826  0.55179653  0.17218763    -0.70480
O931        O  0.05613417  0.54731504  0.14574405    -0.70330
O932        O  0.04367536  0.54644892  0.17739266    -0.75990
O933        O  0.04028280  0.49676521  0.13993369    -0.74200
O934        O  0.49956595  0.50279164  0.15902966    -1.10330
O935        O  0.48300041  0.94045263  0.14540031    -0.69520
C936        C  0.45859214  0.93700991  0.13791015     1.01190
C937        C  0.46908407  0.53181070  0.18055280     0.97590
Al938      Al  0.02149408  0.54402962  0.15885373     1.55560
O939        O  0.44782875  0.94440107  0.17214920    -0.74150
C940        C  0.05883385  0.52655794  0.13771132     1.01760
C941        C  0.47337376  0.53778838  0.13846379     0.96640
O942        O  0.45292016  0.51405429  0.14658561    -0.79470
C943        C  0.11287404  0.64925136  0.26637236     0.06000
C944        C  0.11989279  0.68101698  0.26942991    -0.10150
C945        C  0.10755905  0.68771944  0.28290385     0.03500
C946        C  0.08748769  0.66261992  0.29309694    -0.08670
C947        C  0.07991065  0.63089246  0.29000849     0.05990
C948        C  0.09278396  0.62422099  0.27676063    -0.08090
H949        H  0.13555084  0.70052079  0.26158427     0.11590
H950        H  0.07827390  0.66788977  0.30360867     0.09120
H951        H  0.08679012  0.59954009  0.27444254     0.08960
C952        C  0.18585853  0.61164680  0.22014022     0.06000
C953        C  0.16149611  0.59132762  0.20962243    -0.10150
C954        C  0.12914265  0.58110484  0.21280902     0.03500
C955        C  0.12104441  0.59156922  0.22648575    -0.08670
C956        C  0.14533432  0.61175806  0.23717082     0.05990
C957        C  0.17782935  0.62161597  0.23403153    -0.08090
H958        H  0.16778004  0.58384879  0.19882531     0.11590
H959        H  0.09592629  0.58380608  0.22890276     0.09120
H960        H  0.19669604  0.63733360  0.24219353     0.08960
C961        C  0.07225895  0.88733011  0.28317779     0.06000
C962        C  0.04951957  0.87096177  0.27120597    -0.10150
C963        C  0.02565729  0.87898006  0.26783794     0.03500
C964        C  0.02433900  0.90275068  0.27705002    -0.08670
C965        C  0.04718510  0.91903069  0.28889155     0.05990
C966        C  0.07115962  0.91143908  0.29188334    -0.08090
H967        H  0.05033853  0.85206860  0.26459253     0.11590
H968        H  0.00510671  0.90809312  0.27540975     0.09120
H969        H  0.08823365  0.92344315  0.30139885     0.08960
C970        C  0.42833020  0.81391471  0.21758064     0.06000
C971        C  0.42841305  0.83869738  0.20890253    -0.10150
C972        C  0.45251020  0.87084121  0.21138712     0.03500
C973        C  0.47658357  0.87829352  0.22270133    -0.08670
C974        C  0.47630084  0.85355254  0.23186439     0.05990
C975        C  0.45221611  0.82121979  0.22898344    -0.08090
H976        H  0.41031341  0.83285433  0.19984431     0.11590
H977        H  0.49577115  0.90325229  0.22401065     0.09120
H978        H  0.45200829  0.80180663  0.23560873     0.08960
O979        O  0.45450470  0.95510253  0.36021716    -0.78930
C980        C  0.03240138  0.56088195  0.32273127     1.00430
O981        O  0.00758243  0.55587090  0.33026799    -0.68040
O982        O  0.45607248  0.50074356  0.32513828    -0.71630
Al983      Al  0.47566578  0.52013676  0.34434549     1.48980
C984        C  0.43922080  0.97408722  0.32037763     0.95680
O985        O  0.50046502  0.96110361  0.32347809    -0.77860
O986        O  0.04399962  0.00410263  0.36019708    -0.71410
Al987      Al  0.47851070  0.96028580  0.34188508     1.90120
O988        O  0.04713904  0.99339203  0.32856133    -0.70480
O989        O  0.04568084  0.55932771  0.35733362    -0.70330
O990        O  0.04678806  0.54583507  0.32596044    -0.75990
O991        O  0.49276905  0.54203342  0.36351652    -0.74200
O992        O  0.49852890  0.00336440  0.34278243    -1.10330
O993        O  0.43989344  0.99067081  0.35440856    -0.69520
C994        C  0.43627671  0.96658208  0.36223574     1.01190
C995        C  0.02747962  0.96979381  0.32011896     0.97590
Al996      Al  0.04434429  0.52486688  0.34495931     1.55560
O997        O  0.44307521  0.95418758  0.32846647    -0.74150
C998        C  0.02407000  0.56189322  0.36459047     1.01760
C999        C  0.03300553  0.97426538  0.36191426     0.96640
O1000       O  0.00946448  0.95361993  0.35373232    -0.79470
O1001       O  0.32047722  0.71458681  0.98080747    -0.78930
C1002       C  0.29808287  0.60604294  0.01336374     1.00430
O1003       O  0.28496191  0.62256712  0.01080974    -0.68040
O1004       O  0.28163048  0.67435966  0.00523870    -0.71630
Al1005     Al  0.28785780  0.64467409  0.99221444     1.48980
C1006       C  0.30120967  0.69744979  0.01398818     0.95680
O1007       O  0.38731705  0.71558929  0.00656573    -0.77860
O1008       O  0.38917646  0.67923656  0.98067623    -0.71410
Al1009     Al  0.35164830  0.71026055  0.99353864     1.90120
O1010       O  0.37357393  0.66548809  0.01204812    -0.70480
O1011       O  0.33524305  0.62541141  0.97382671    -0.70330
O1012       O  0.32213003  0.61009223  0.00538229    -0.75990
O1013       O  0.28463458  0.60989332  0.97920964    -0.74200
O1014       O  0.33091013  0.66720498  0.99285328    -1.10330
O1015       O  0.28602606  0.66462988  0.97353484    -0.69520
C1016       C  0.29718810  0.69458245  0.97228087     1.01190
C1017       C  0.39053525  0.69529401  0.01468629     0.97590
Al1018     Al  0.35321039  0.64675908  0.99294662     1.55560
O1019       O  0.33128299  0.71049945  0.01224681    -0.74150
C1020       C  0.30548754  0.60703345  0.97137891     1.01760
C1021       C  0.39267076  0.70327233  0.97282878     0.96640
O1022       O  0.37434251  0.71457784  0.97489072    -0.79470
C1023       C  0.25723278  0.78166611  0.05051373     0.06000
C1024       C  0.25803903  0.75729471  0.04187971    -0.10150
C1025       C  0.28242122  0.75011643  0.04457387     0.03500
C1026       C  0.30602004  0.76717693  0.05603591    -0.08670
C1027       C  0.30495597  0.79112878  0.06525272     0.05990
C1028       C  0.28061045  0.79862455  0.06216773    -0.08090
H1029       H  0.24036584  0.74472350  0.03265701     0.11590
H1030       H  0.32549928  0.76212625  0.05740602     0.09120
H1031       H  0.27986942  0.81756084  0.06877994     0.08960
C1032       C  0.40377566  0.85090800  0.11665078     0.06000
C1033       C  0.38404166  0.84098690  0.10311058    -0.10150
C1034       C  0.36401303  0.80757645  0.09985842     0.03500
C1035       C  0.36401338  0.78488621  0.11024188    -0.08670
C1036       C  0.38307776  0.79485717  0.12373383     0.05990
C1037       C  0.40298245  0.82773888  0.12691897    -0.08090
H1038       H  0.38465487  0.85895400  0.09519279     0.11590
H1039       H  0.34845860  0.75916853  0.10800498     0.09120
H1040       H  0.41747648  0.83531735  0.13755330     0.08960
C1041       C  0.20452106  0.51808964  0.06582279     0.06000
C1042       C  0.22803120  0.54289281  0.05620639    -0.10150
C1043       C  0.24510956  0.53600011  0.04503177     0.03500
C1044       C  0.23847086  0.50432055  0.04310693    -0.08670
C1045       C  0.21954354  0.98260271  0.05062211     0.05990
C1046       C  0.20788425  0.99274672  0.06333329    -0.08090
H1047       H  0.23272267  0.56744446  0.05703781     0.11590
H1048       H  0.25106020  0.49889510  0.03413720     0.09120
H1049       H  0.19040505  0.97492328  0.07131924     0.08960
C1050       C  0.14424438  0.55737046  0.11642695     0.06000
C1051       C  0.15392081  0.54815851  0.10268023    -0.10150
C1052       C  0.18727248  0.56107197  0.09966689     0.03500
C1053       C  0.21015490  0.58256224  0.11049499    -0.08670
C1054       C  0.20039612  0.59084845  0.12423157     0.05990
C1055       C  0.16759283  0.57844906  0.12716814    -0.08090
H1056       H  0.13588163  0.53170057  0.09439740     0.11590
H1057       H  0.23579621  0.59231656  0.10840647     0.09120
H1058       H  0.16019007  0.58483244  0.13795843     0.08960
C1059       C  0.01712077  0.74072609  0.05221236     0.06000
C1060       C  0.49349172  0.73685728  0.04254240    -0.10150
C1061       C  0.46174160  0.71248452  0.04546966     0.03500
C1062       C  0.45542941  0.68906940  0.05691106    -0.08670
C1063       C  0.48092658  0.69030288  0.06585182     0.05990
C1064       C  0.00689890  0.72043127  0.06552266    -0.08090
H1065       H  0.49837026  0.75442298  0.03335987     0.11590
H1066       H  0.43069345  0.66960313  0.05849253     0.09120
H1067       H  0.02468062  0.72071957  0.07348689     0.08960
C1068       C  0.44143578  0.59152146  0.11725487     0.06000
C1069       C  0.45172169  0.61162349  0.10385953    -0.10150
C1070       C  0.43864847  0.63173722  0.10072508     0.03500
C1071       C  0.41585049  0.63147190  0.11110263    -0.08670
C1072       C  0.40623764  0.61201134  0.12441439     0.05990
C1073       C  0.41888194  0.59202974  0.12747711    -0.08090
H1074       H  0.46918569  0.61122135  0.09596835     0.11590
H1075       H  0.40591355  0.64706379  0.10898247     0.09120
H1076       H  0.41159044  0.57726711  0.13799177     0.08960
O1077       O  0.37676721  0.65334553  0.18988975    -0.78930
C1078       C  0.26971896  0.63613155  0.15725457     1.00430
O1079       O  0.28502801  0.62157856  0.15949258    -0.68040
O1080       O  0.33520991  0.61520013  0.16504010    -0.71630
Al1081     Al  0.30694748  0.62292498  0.17805179     1.48980
C1082       C  0.35897512  0.63402818  0.15656862     0.95680
O1083       O  0.38108654  0.72113986  0.16432998    -0.77860
O1084       O  0.34523318  0.72471927  0.19010074    -0.71410
Al1085     Al  0.37409510  0.68513775  0.17723151     1.90120
O1086       O  0.33177805  0.71035812  0.15885427    -0.70480
O1087       O  0.29030470  0.67188522  0.19683122    -0.70330
O1088       O  0.27520000  0.66041041  0.16540354    -0.75990
O1089       O  0.27322350  0.62104619  0.19100050    -0.74200
O1090       O  0.33108342  0.66597402  0.17774479    -1.10330
O1091       O  0.32638723  0.61945715  0.19665919    -0.69520
C1092       C  0.35625029  0.63013613  0.19816556     1.01190
C1093       C  0.36172191  0.72590451  0.15630087     0.97590
Al1094     Al  0.31222326  0.68985236  0.17782765     1.55560
O1095       O  0.37359544  0.66417649  0.15852404    -0.74150
C1096       C  0.27114058  0.64214129  0.19896973     1.01760
C1097       C  0.36908184  0.72758884  0.19783165     0.96640
O1098       O  0.37938207  0.70837600  0.19588915    -0.79470
O1099       O  0.12106413  0.78544526  0.02825925    -0.78930
C1100       C  0.19247276  0.89505843  0.98952530     1.00430
O1101       O  0.16901575  0.89028540  0.99817155    -0.68040
O1102       O  0.11797828  0.83423669  0.99204736    -0.71630
Al1103     Al  0.13974704  0.85332121  0.01085003     1.48980
C1104       C  0.10244354  0.80452800  0.98895235     0.95680
O1105       O  0.16290464  0.79082144  0.99023551    -0.77860
O1106       O  0.21017045  0.83837614  0.02815825    -0.71410
Al1107     Al  0.14326142  0.79078766  0.00928510     1.90120
O1108       O  0.21251110  0.82822202  0.99638985    -0.70480
O1109       O  0.20943275  0.89238231  0.02278159    -0.70330
O1110       O  0.20629711  0.87888981  0.99120521    -0.75990
O1111       O  0.15923506  0.87516235  0.02978051    -0.74200
O1112       O  0.16298194  0.83384634  0.00999528    -1.10330
O1113       O  0.10528500  0.82039158  0.02353896    -0.69520
C1114       C  0.10254574  0.79625636  0.03097416     1.01190
C1115       C  0.19286797  0.80443029  0.98801482     0.97590
Al1116     Al  0.20603615  0.85750500  0.00969540     1.55560
O1117       O  0.10685949  0.78455570  0.99668080    -0.74150
C1118       C  0.18906787  0.89496567  0.03118394     1.01760
C1119       C  0.19924541  0.80850104  0.02973390     0.96640
O1120       O  0.17562528  0.78786694  0.02157666    -0.79470
C1121       C  0.09297313  0.65195049  0.88476926     0.06000
C1122       C  0.11375124  0.66228081  0.89794588    -0.10150
C1123       C  0.13341103  0.69577998  0.90114968     0.03500
C1124       C  0.13195388  0.71812322  0.89103753    -0.08670
C1125       C  0.11171239  0.70774169  0.87793070     0.05990
C1126       C  0.09224031  0.67478656  0.87481915    -0.08090
H1127       H  0.11418378  0.64451645  0.90562718     0.11590
H1128       H  0.14716588  0.74390731  0.89320833     0.09120
H1129       H  0.07689646  0.66689772  0.86446555     0.08960
C1130       C  0.23910181  0.72159725  0.95149560     0.06000
C1131       C  0.23724394  0.74527071  0.96027582    -0.10150
C1132       C  0.21275819  0.75223858  0.95730165     0.03500
C1133       C  0.19009432  0.73559971  0.94539255    -0.08670
C1134       C  0.19208790  0.71223807  0.93610028     0.05990
C1135       C  0.21652584  0.70499178  0.93946540    -0.08090
H1136       H  0.25426045  0.75755061  0.96977537     0.11590
H1137       H  0.17054579  0.74045631  0.94371365     0.09120
H1138       H  0.21797247  0.68653955  0.93276578     0.08960
C1139       C  0.35368065  0.95004927  0.88344083     0.06000
C1140       C  0.34822175  0.96694609  0.89540025    -0.10150
C1141       C  0.31644672  0.95962998  0.89883301     0.03500
C1142       C  0.29062209  0.93612572  0.88966727    -0.08670
C1143       C  0.29621447  0.91928359  0.87788282     0.05990
C1144       C  0.32763332  0.92614856  0.87483622    -0.08090
H1145       H  0.36851326  0.98558364  0.90198925     0.11590
H1146       H  0.26616707  0.93129904  0.89136744     0.09120
H1147       H  0.33194881  0.91364950  0.86538277     0.08960
C1148       C  0.27542525  0.52190633  0.94983338     0.06000
C1149       C  0.25425266  0.99715832  0.95956637    -0.10150
C1150       C  0.24144684  0.96409104  0.95709737     0.03500
C1151       C  0.25127066  0.95344067  0.94416226    -0.08670
C1152       C  0.27435199  0.97560392  0.93363452     0.05990
C1153       C  0.28467742  0.51249524  0.93601924    -0.08090
H1154       H  0.24832015  0.50562815  0.97138629     0.11590
H1155       H  0.24124772  0.92764226  0.94244116     0.09120
H1156       H  0.30088952  0.53066602  0.92776869     0.08960
C1157       C  0.05258588  0.91210385  0.88518285     0.06000
C1158       C  0.03876159  0.89161612  0.89815328    -0.10150
C1159       C  0.04661343  0.86761907  0.90152252     0.03500
C1160       C  0.06905119  0.86498478  0.89183206    -0.08670
C1161       C  0.08308998  0.88583483  0.87899596     0.05990
C1162       C  0.07471398  0.90917945  0.87570815    -0.08090
H1163       H  0.02143818  0.89386713  0.90539590     0.11590
H1164       H  0.07597556  0.84714484  0.89430829     0.09120
H1165       H  0.08490573  0.92465807  0.86552364     0.08960
C1166       C  0.47670333  0.76141617  0.95052722     0.06000
C1167       C  0.00152069  0.76201162  0.95928425    -0.10150
C1168       C  0.03393331  0.78360882  0.95570751     0.03500
C1169       C  0.04197823  0.80170710  0.94185128    -0.08670
C1170       C  0.01755867  0.79821780  0.93150706     0.05990
C1171       C  0.48244069  0.78238959  0.93783337    -0.08090
H1172       H  0.99538901  0.74840360  0.97015201     0.11590
H1173       H  0.06718445  0.81849402  0.93910385     0.09120
H1174       H  0.46217903  0.78010142  0.93108631     0.08960
O1175       O  0.11841735  0.79695942  0.80571312    -0.78930
C1176       C  0.22361411  0.86769739  0.84718715     1.00430
O1177       O  0.21905204  0.84378179  0.83897315    -0.68040
O1178       O  0.16172829  0.79352495  0.84444216    -0.71630
Al1179     Al  0.18292692  0.81443781  0.82586668     1.48980
C1180       C  0.13151411  0.77706169  0.84601170     0.95680
O1181       O  0.11856546  0.83736590  0.84340597    -0.77860
O1182       O  0.17018628  0.88573307  0.80683614    -0.71410
Al1183     Al  0.12080276  0.81838649  0.82460899     1.90120
O1184       O  0.15750346  0.88716624  0.83859485    -0.70480
O1185       O  0.22282687  0.88372746  0.81328378    -0.70330
O1186       O  0.20776592  0.88156822  0.84476975    -0.75990
O1187       O  0.20617554  0.83296183  0.80734263    -0.74200
O1188       O  0.16381516  0.83801910  0.82538447    -1.10330
O1189       O  0.15108490  0.77967188  0.81294236    -0.69520
C1190       C  0.12853721  0.77748801  0.80432012     1.01190
C1191       C  0.13299481  0.86709873  0.84642814     0.97590
Al1192     Al  0.18760803  0.88102095  0.82580135     1.55560
O1193       O  0.11277769  0.78143207  0.83721686    -0.74150
C1194       C  0.22541529  0.86271880  0.80537496     1.01760
C1195       C  0.14060299  0.87476057  0.80428069     0.96640
O1196       O  0.11917809  0.85101000  0.81198896    -0.79470
C1197       C  0.42291353  0.61143589  0.71854278     0.06000
C1198       C  0.44281849  0.62165666  0.73203390    -0.10150
C1199       C  0.46292663  0.60862200  0.73523638     0.03500
C1200       C  0.46288286  0.58595046  0.72484387    -0.08670
C1201       C  0.44362063  0.57643002  0.71143255     0.05990
C1202       C  0.42362572  0.58901675  0.70827863    -0.08090
H1203       H  0.44224130  0.63901745  0.73995666     0.11590
H1204       H  0.47850009  0.57606130  0.72703085     0.09120
H1205       H  0.40898963  0.58175392  0.69768960     0.08960
C1206       C  0.07020214  0.69197623  0.78373277     0.06000
C1207       C  0.04670765  0.68487989  0.77211396    -0.10150
C1208       C  0.02244871  0.65259752  0.76918195     0.03500
C1209       C  0.02156165  0.62778106  0.77851350    -0.08670
C1210       C  0.04520062  0.63503003  0.79002255     0.05990
C1211       C  0.06949842  0.66705379  0.79255209    -0.08090
H1212       H  0.04733475  0.70437633  0.76538085     0.11590
H1213       H  0.00220356  0.60289968  0.77717601     0.09120
H1214       H  0.08725693  0.67271018  0.80176662     0.08960
O1215       O  0.05572013  0.51286444  0.64654286    -0.78930
C1216       C  0.46655564  0.52901788  0.67985807     1.00430
O1217       O  0.49685006  0.54258849  0.67873128    -0.68040
O1218       O  0.05292256  0.55132355  0.67075265    -0.71630
Al1219     Al  0.01647849  0.54311116  0.65775553     1.48980
C1220       C  0.05747113  0.53280082  0.67954381     0.95680
O1221       O  0.49472924  0.94695183  0.66830383    -0.77860
O1222       O  0.45466363  0.94285009  0.64251957    -0.71410
Al1223     Al  0.02440770  0.98121074  0.65790259     1.90120
O1224       O  0.45559612  0.95644710  0.67389067    -0.70480
O1225       O  0.45447853  0.49710317  0.63941816    -0.70330
O1226       O  0.44791868  0.50612614  0.67082563    -0.75990
O1227       O  0.98453232  0.54505154  0.64479188    -0.74200
O1228       O  0.49844393  0.50009414  0.65957032    -1.10330
O1229       O  0.03917602  0.54617024  0.63922898    -0.69520
C1230       C  0.05849466  0.53578188  0.63801604     1.01190
C1231       C  0.47025295  0.94133326  0.67634365     0.97590
Al1232     Al  0.45609339  0.97708455  0.65506537     1.55560
O1233       O  0.04096890  0.50258034  0.67802148    -0.74150
C1234       C  0.46497449  0.52699907  0.63842874     1.01760
C1235       C  0.47587252  0.94054601  0.63475246     0.96640
O1236       O  0.50556625  0.96046415  0.63663567    -0.79470
C1237       C  0.30892081  0.88627931  0.78334714     0.06000
C1238       C  0.31414085  0.86923712  0.77133228    -0.10150
C1239       C  0.34589833  0.87663630  0.76763518     0.03500
C1240       C  0.37195164  0.90043123  0.77663486    -0.08670
C1241       C  0.36655799  0.91726087  0.78854776     0.05990
C1242       C  0.33517904  0.91029628  0.79178068    -0.08090
H1243       H  0.29368878  0.85046844  0.76488520     0.11590
H1244       H  0.39640471  0.90542030  0.77472407     0.09120
H1245       H  0.33106289  0.92287059  0.80127055     0.08960
C1246       C  0.38681453  0.81654535  0.71726308     0.06000
C1247       C  0.40925978  0.83943224  0.70678946    -0.10150
C1248       C  0.42087542  0.87238613  0.70900653     0.03500
C1249       C  0.41019074  0.88266852  0.72176995    -0.08670
C1250       C  0.38753565  0.86033243  0.73242304     0.05990
C1251       C  0.37559587  0.82687176  0.73008171    -0.08090
H1252       H  0.41738879  0.83153144  0.69676298     0.11590
H1253       H  0.41941413  0.90837385  0.72332559     0.09120
H1254       H  0.35838228  0.80918978  0.73820825     0.08960
C1255       C  0.10944098  0.92781790  0.78227642     0.06000
C1256       C  0.11966985  0.94791039  0.76892301    -0.10150
C1257       C  0.10618365  0.96759180  0.76570708     0.03500
C1258       C  0.08294983  0.96684337  0.77593856    -0.08670
C1259       C  0.07344532  0.94735385  0.78924076     0.05990
C1260       C  0.08651633  0.92781301  0.79239171    -0.08090
H1261       H  0.13748418  0.94788181  0.76114441     0.11590
H1262       H  0.07274335  0.98218057  0.77376120     0.09120
H1263       H  0.07934896  0.91308642  0.80292025     0.08960
C1264       C  0.18376683  0.57411801  0.71853579     0.06000
C1265       C  0.16089958  0.57414303  0.70828175    -0.10150
C1266       C  0.12790855  0.55447388  0.71126563     0.03500
C1267       C  0.11755983  0.53475947  0.72448862    -0.08670
C1268       C  0.13990627  0.53397277  0.73485449     0.05990
C1269       C  0.17341006  0.55380348  0.73182910    -0.08090
H1270       H  0.16878746  0.58914465  0.69784967     0.11590
H1271       H  0.09176893  0.51941394  0.72655999     0.09120
H1272       H  0.19114909  0.55388822  0.73974967     0.08960
O1273       O  0.01423056  0.56300972  0.85590801    -0.78930
C1274       C  0.02641984  0.96906233  0.82150708     1.00430
O1275       O  0.04018690  0.99929737  0.82296616    -0.68040
O1276       O  0.04930274  0.56108195  0.82904972    -0.71630
Al1277     Al  0.04380941  0.52499698  0.84175679     1.48980
C1278       C  0.02892366  0.56519615  0.82146018     0.95680
O1279       O  0.44208342  0.99326707  0.82794022    -0.77860
O1280       O  0.44038188  0.95464235  0.85365186    -0.71410
Al1281     Al  0.48053011  0.52740496  0.84421483     1.90120
O1282       O  0.45485669  0.95648835  0.82217634    -0.70480
O1283       O  0.99363953  0.95625760  0.86178221    -0.70330
O1284       O  0.50604105  0.95250421  0.82833551    -0.75990
O1285       O  0.04743300  0.49302792  0.85412570    -0.74200
O1286       O  0.49971640  0.50389177  0.84365440    -1.10330
O1287       O  0.04949538  0.54765343  0.86068313    -0.69520
C1288       C  0.03856667  0.56611281  0.86332717     1.01190
C1289       C  0.43833475  0.96963171  0.81969050     0.97590
Al1290     Al  0.47573199  0.95817375  0.84108311     1.55560
O1291       O  0.99927466  0.54913713  0.82456671    -0.74150
C1292       C  0.02355071  0.96726042  0.86327641     1.01760
C1293       C  0.43744464  0.97531964  0.86162732     0.96640
O1294       O  0.45607998  0.00516318  0.85959849    -0.79470
O1295       O  0.28595660  0.62621967  0.47237550    -0.78930
C1296       C  0.39189410  0.70014698  0.51301865     1.00430
O1297       O  0.38739254  0.67566098  0.50528772    -0.68040
O1298       O  0.33057416  0.62497728  0.51085008    -0.71630
Al1299     Al  0.35162995  0.64555415  0.49217390     1.48980
C1300       C  0.30042439  0.60859040  0.51260762     0.95680
O1301       O  0.28792308  0.66949222  0.50943731    -0.77860
O1302       O  0.33746753  0.71454127  0.47172232    -0.71410
Al1303     Al  0.28913311  0.64896135  0.49092235     1.90120
O1304       O  0.32592785  0.71884660  0.50312532    -0.70480
O1305       O  0.39080732  0.71433862  0.47883176    -0.70330
O1306       O  0.37630212  0.71407601  0.50998424    -0.75990
O1307       O  0.37505589  0.66356256  0.47359022    -0.74200
O1308       O  0.33219710  0.66879387  0.49128985    -1.10330
O1309       O  0.31994051  0.61034429  0.47938054    -0.69520
C1310       C  0.29673827  0.60727908  0.47097035     1.01190
C1311       C  0.30219594  0.69959711  0.51152585     0.97590
Al1312     Al  0.35568284  0.71186079  0.49089755     1.55560
O1313       O  0.28152433  0.61284731  0.50393158    -0.74150
C1314       C  0.39398389  0.69330145  0.47140127     1.01760
C1315       C  0.30768564  0.70357099  0.46969883     0.96640
O1316       O  0.28680131  0.68053270  0.47792629    -0.79470
C1317       C  0.22124422  0.74118088  0.55241349     0.06000
C1318       C  0.24313021  0.74040137  0.54186251    -0.10150
C1319       C  0.25645082  0.72101254  0.54484526     0.03500
C1320       C  0.24826579  0.70244798  0.55845905    -0.08670
C1321       C  0.22600877  0.70238825  0.56913962     0.05990
C1322       C  0.21223079  0.72189904  0.56606180    -0.08090
H1323       H  0.24937445  0.75449783  0.53114247     0.11590
H1324       H  0.25867692  0.68726263  0.56054009     0.09120
H1325       H  0.19518428  0.72244593  0.57419048     0.08960
C1326       C  0.14452970  0.59449028  0.61791704     0.06000
C1327       C  0.15138277  0.61791144  0.60633101    -0.10150
C1328       C  0.18355449  0.64253374  0.60349206     0.03500
C1329       C  0.20854317  0.64375282  0.61286869    -0.08670
C1330       C  0.20154677  0.62018566  0.62436128     0.05990
C1331       C  0.16962451  0.59558282  0.62678769    -0.08090
H1332       H  0.13174027  0.61700718  0.59957853     0.11590
H1333       H  0.23332258  0.66333458  0.61163070     0.09120
H1334       H  0.16416089  0.57791744  0.63599154     0.08960
C1335       C  0.02098404  0.78231345  0.54916160     0.06000
C1336       C  0.49472557  0.75966868  0.54165461    -0.10150
C1337       C  0.46302089  0.75228358  0.54443781     0.03500
C1338       C  0.45671339  0.76864354  0.55622580    -0.08670
C1339       C  0.48214023  0.79229139  0.56553221     0.05990
C1340       C  0.01654526  0.80029822  0.56087597    -0.08090
H1341       H  0.49965320  0.74753389  0.53224760     0.11590
H1342       H  0.43208972  0.76340193  0.55780454     0.09120
H1343       H  0.03725803  0.81875818  0.56731288     0.08960
C1344       C  0.44401620  0.85263366  0.61595055     0.06000
C1345       C  0.45355205  0.84177133  0.60279142    -0.10150
C1346       C  0.44030657  0.80822279  0.60032290     0.03500
C1347       C  0.41785721  0.78623698  0.61110149    -0.08670
C1348       C  0.40886791  0.79713707  0.62424016     0.05990
C1349       C  0.42187261  0.83024863  0.62666479    -0.08090
H1350       H  0.47060933  0.85920388  0.59452957     0.11590
H1351       H  0.40772100  0.76041198  0.60941758     0.09120
H1352       H  0.41509982  0.83862567  0.63700370     0.08960
C1353       C  0.25944179  0.97920462  0.55009204     0.06000
C1354       C  0.26004995  0.50640622  0.54171345    -0.10150
C1355       C  0.27976775  0.53936509  0.54475631     0.03500
C1356       C  0.29946688  0.54974691  0.55803785    -0.08670
C1357       C  0.30017360  0.52742070  0.56842431     0.05990
C1358       C  0.28295280  0.98665837  0.56172520    -0.08090
H1359       H  0.24504126  0.49855317  0.53124653     0.11590
H1360       H  0.31482250  0.57553724  0.56015450     0.09120
H1361       H  0.28261535  0.96730293  0.56846160     0.08960
C1362       C  0.40659331  0.55444351  0.61840244     0.06000
C1363       C  0.38364741  0.53773976  0.60655325    -0.10150
C1364       C  0.35916926  0.54498259  0.60336321     0.03500
C1365       C  0.35758974  0.56863865  0.61264125    -0.08670
C1366       C  0.38060626  0.58536343  0.62444728     0.05990
C1367       C  0.40509092  0.57827143  0.62723361    -0.08090
H1368       H  0.38483302  0.51914580  0.59984695     0.11590
H1369       H  0.33809611  0.57360416  0.61105969     0.09120
H1370       H  0.42239159  0.59057804  0.63662567     0.08960
O1371       O  0.28946392  0.61906320  0.69583267    -0.78930
C1372       C  0.36096700  0.72842845  0.65693552     1.00430
O1373       O  0.33760480  0.72371793  0.66561565    -0.68040
O1374       O  0.28698660  0.66757028  0.65926867    -0.71630
Al1375     Al  0.30826610  0.68662782  0.67814506     1.48980
C1376       C  0.27125165  0.63781563  0.65628870     0.95680
O1377       O  0.33178530  0.62390461  0.65800608    -0.77860
O1378       O  0.37926887  0.67236310  0.69568781    -0.71410
Al1379     Al  0.31201552  0.62422879  0.67694665     1.90120
O1380       O  0.38135087  0.66178926  0.66387288    -0.70480
O1381       O  0.37772428  0.72598254  0.69016853    -0.70330
O1382       O  0.37474205  0.71221150  0.65858397    -0.75990
O1383       O  0.32738847  0.70838831  0.69712895    -0.74200
O1384       O  0.33164585  0.66726855  0.67748023    -1.10330
O1385       O  0.27346230  0.65361932  0.69060353    -0.69520
C1386       C  0.27050906  0.62952778  0.69814254     1.01190
C1387       C  0.36169688  0.63775006  0.65561501     0.97590
Al1388     Al  0.37470340  0.69110276  0.67714615     1.55560
O1389       O  0.27563778  0.61785412  0.66409300    -0.74150
C1390       C  0.35717634  0.72847280  0.69849249     1.01760
C1391       C  0.36833380  0.64254325  0.69752464     0.96640
O1392       O  0.34449394  0.62168008  0.68951241    -0.79470
C1393       C  0.37768633  0.60799376  0.63455445    -0.10400
C1394       C  0.37287342  0.62416620  0.64384222    -0.11960
C1395       C  0.33552780  0.52746555  0.59040267    -0.13560
C1396       C  0.32127671  0.54122327  0.58248715    -0.28740
H1397       H  0.33187207  0.50424092  0.58653735     0.15460
H1398       H  0.32769172  0.56574974  0.58557705     0.16040
C1399       C  0.38801768  0.77411688  0.63572584    -0.10400
C1400       C  0.37342138  0.75352619  0.64540655    -0.11960
C1401       C  0.47578049  0.80918373  0.57847100    -0.13560
C1402       C  0.44784573  0.79437147  0.58653892    -0.28740
H1403       H  0.49511109  0.83293526  0.58212459     0.15460
H1404       H  0.43015707  0.76938915  0.58370761     0.16040
C1405       C  0.24703725  0.62708722  0.64422631    -0.10400
C1406       C  0.22663580  0.62270160  0.63464697    -0.11960
C1407       C  0.21899270  0.68188708  0.58331191    -0.13560
C1408       C  0.19030879  0.66657159  0.59075964    -0.28740
H1409       H  0.23756719  0.67640398  0.58662933     0.15460
H1410       H  0.17053656  0.66948728  0.58652655     0.16040
C1411       C  0.29021462  0.71179849  0.52337119    -0.10400
C1412       C  0.27645840  0.71797295  0.53332143    -0.11960
C1413       C  0.28784098  0.58365593  0.52418118    -0.10400
C1414       C  0.28185276  0.56286282  0.53368901    -0.11960
C1415       C  0.41628774  0.71389520  0.52496227    -0.10400
C1416       C  0.43732697  0.72982618  0.53431820    -0.11960
C1417       C  0.24331931  0.61177788  0.70840030    -0.10400
C1418       C  0.21752328  0.59458211  0.71463211    -0.11960
C1419       C  0.05253595  0.94989370  0.80036290    -0.10400
C1420       C  0.03835956  0.95628049  0.80996758    -0.11960
C1421       C  0.11436514  0.98889877  0.75180664    -0.13560
C1422       C  0.14289191  0.00306061  0.74422209    -0.28740
H1423       H  0.09658588  0.99557656  0.74861620     0.15460
H1424       H  0.10146344  0.50581149  0.75167535     0.16040
C1425       C  0.37518041  0.78271098  0.71401229    -0.10400
C1426       C  0.36727086  0.75656867  0.70829995    -0.11960
C1427       C  0.39278009  0.93979603  0.79843066    -0.10400
C1428       C  0.41381912  0.95584695  0.80778108    -0.11960
C1429       C  0.37925701  0.87413981  0.74610064    -0.13560
C1430       C  0.35168742  0.85931386  0.75454589    -0.28740
H1431       H  0.39654734  0.89936593  0.74869117     0.15460
H1432       H  0.33252256  0.83519108  0.75127219     0.16040
C1433       C  0.10425049  0.55230262  0.70022666    -0.10400
C1434       C  0.08296623  0.54589633  0.69090071    -0.11960
C1435       C  0.44233842  0.89581276  0.69771946    -0.10400
C1436       C  0.45747863  0.91642385  0.68806611    -0.11960
C1437       C  0.44816500  0.53786084  0.62852752    -0.10400
C1438       C  0.43021384  0.54559704  0.62260803    -0.11960
C1439       C  0.11173038  0.57085623  0.62196126    -0.10400
C1440       C  0.08606378  0.55278128  0.62800850    -0.11960
C1441       C  0.45721726  0.88656110  0.61919990    -0.10400
C1442       C  0.46620445  0.91286170  0.62486550    -0.11960
C1443       C  0.03908552  0.58950171  0.80954202    -0.10400
C1444       C  0.04313136  0.60999968  0.80014150    -0.11960
C1445       C  0.38530103  0.63249527  0.70788465    -0.10400
C1446       C  0.40228002  0.62411261  0.71437387    -0.11960
C1447       C  0.45344691  0.54127038  0.69107286    -0.10400
C1448       C  0.44659300  0.55562331  0.70037488    -0.11960
C1449       C  0.48385695  0.61648000  0.74931682    -0.13560
C1450       C  0.49778578  0.64477865  0.75713290    -0.28740
H1451       H  0.49064483  0.59874291  0.75241365     0.15460
H1452       H  0.49379971  0.66405736  0.75322814     0.16040
C1453       C  0.27685702  0.87816898  0.78822498    -0.10400
C1454       C  0.25232114  0.87223454  0.79497780    -0.11960
C1455       C  0.12282012  0.90793977  0.78657342    -0.10400
C1456       C  0.13131391  0.89145464  0.79340332    -0.11960
C1457       C  0.11159059  0.75035877  0.79402836    -0.10400
C1458       C  0.09360230  0.72480918  0.78783026    -0.11960
C1459       C  0.04251609  0.93451984  0.88050035    -0.10400
C1460       C  0.03433041  0.95144429  0.87387668    -0.11960
C1461       C  0.11992338  0.87765522  0.85866045    -0.10400
C1462       C  0.10456842  0.88222595  0.86847608    -0.11960
C1463       C  0.03226405  0.84671021  0.91559019    -0.13560
C1464       C  0.02696406  0.81635590  0.91658269    -0.28740
H1465       H  0.02602601  0.85667793  0.92552929     0.15460
H1466       H  0.03179856  0.80526958  0.90666532     0.16040
C1467       C  0.41065502  0.96518407  0.87210178    -0.10400
C1468       C  0.38586764  0.95850824  0.87875873    -0.11960
C1469       C  0.27001927  0.89684386  0.86802068    -0.10400
C1470       C  0.24847760  0.88102098  0.85889137    -0.11960
C1471       C  0.28246383  0.96184861  0.91998127    -0.13560
C1472       C  0.31041189  0.97665800  0.91187510    -0.28740
H1473       H  0.26489554  0.93681124  0.91718842     0.15460
H1474       H  0.32972962  0.00048222  0.91544177     0.16040
C1475       C  0.05595554  0.59283933  0.87393417    -0.10400
C1476       C  0.07287227  0.61829519  0.88055652    -0.11960
C1477       C  0.11878046  0.75194292  0.85750935    -0.10400
C1478       C  0.11316509  0.73120541  0.86700390    -0.11960
C1479       C  0.15507804  0.70941853  0.91502693    -0.13560
C1480       C  0.16878347  0.69513203  0.92298317    -0.28740
H1481       H  0.16203619  0.73410608  0.91809237     0.15460
H1482       H  0.16470003  0.67171765  0.91918099     0.16040
C1483       C  0.20505968  0.92021341  0.97800270    -0.10400
C1484       C  0.22000758  0.94087881  0.96838920    -0.11960
C1485       C  0.20419376  0.79080456  0.97638811    -0.10400
C1486       C  0.20944100  0.77472210  0.96727473    -0.11960
C1487       C  0.05867500  0.78818068  0.96673156    -0.10400
C1488       C  0.07868543  0.79369848  0.97670260    -0.11960
C1489       C  0.37097072  0.62125874  0.14499584    -0.10400
C1490       C  0.38532611  0.61476478  0.13550985    -0.11960
C1491       C  0.05076311  0.76148939  0.04823451    -0.10400
C1492       C  0.07608995  0.77881353  0.04165318    -0.11960
C1493       C  0.44645911  0.65282797  0.08671647    -0.13560
C1494       C  0.47450227  0.66657808  0.07870425    -0.28740
H1495       H  0.42874413  0.65974694  0.08377614     0.15460
H1496       H  0.49384444  0.66250126  0.08241209     0.16040
C1497       C  0.24490513  0.62389202  0.14555883    -0.10400
C1498       C  0.22419467  0.61028367  0.13578346    -0.11960
C1499       C  0.20769350  0.94881445  0.04716409    -0.10400
C1500       C  0.19948497  0.92280690  0.04121261    -0.11960
C1501       C  0.20019000  0.55410287  0.08535099    -0.13560
C1502       C  0.18708669  0.52490888  0.07838903    -0.28740
H1503       H  0.22402919  0.57312854  0.08172817     0.15460
H1504       H  0.16477657  0.50490583  0.08302907     0.16040
C1505       C  0.37372899  0.75040786  0.14450615    -0.10400
C1506       C  0.38003429  0.77109063  0.13488590    -0.11960
C1507       C  0.23394748  0.79076091  0.04615492    -0.10400
C1508       C  0.21614007  0.79819614  0.03986160    -0.11960
C1509       C  0.32885848  0.80838873  0.07811035    -0.13560
C1510       C  0.34316318  0.79435200  0.08574214    -0.28740
H1511       H  0.33255362  0.83149727  0.08219737     0.15460
H1512       H  0.33671809  0.76989559  0.08250645     0.16040
C1513       C  0.28482463  0.72715303  0.03464664    -0.10400
C1514       C  0.28975111  0.71094884  0.02552166    -0.11960
C1515       C  0.28395785  0.58141523  0.02515698    -0.10400
C1516       C  0.26769426  0.56092309  0.03464908    -0.11960
C1517       C  0.41504892  0.70568931  0.02654487    -0.10400
C1518       C  0.43599758  0.71003230  0.03575031    -0.11960
C1519       C  0.41961501  0.72013093  0.96238221    -0.10400
C1520       C  0.44441046  0.73808456  0.95556601    -0.11960
C1521       C  0.29547966  0.58053872  0.96059701    -0.10400
C1522       C  0.28744942  0.55532614  0.95391968    -0.11960
C1523       C  0.28065258  0.70552124  0.96221997    -0.10400
C1524       C  0.26272334  0.71292220  0.95597453    -0.11960
C1525       C  0.40506623  0.78097301  0.21364569    -0.10400
C1526       C  0.38693773  0.75512279  0.20776549    -0.11960
C1527       C  0.04420603  0.94134820  0.29898106    -0.10400
C1528       C  0.03892320  0.95687912  0.30833313    -0.11960
C1529       C  0.98860523  0.87656607  0.24696105    -0.13560
C1530       C  0.00202436  0.86201430  0.25491333    -0.28740
H1531       H  0.50454347  0.84149643  0.24847907     0.15460
H1532       H  0.99730445  0.83827664  0.25129871     0.16040
C1533       C  0.21897443  0.62330968  0.21587291    -0.10400
C1534       C  0.24451756  0.63216886  0.20949688    -0.11960
C1535       C  0.04564076  0.58493146  0.31063336    -0.10400
C1536       C  0.06014848  0.60552473  0.30089674    -0.11960
C1537       C  0.13634565  0.62127400  0.25189608    -0.13560
C1538       C  0.12550314  0.64221954  0.25198545    -0.28740
H1539       H  0.13818489  0.61044981  0.26274621     0.15460
H1540       H  0.12612101  0.65468149  0.24122920     0.16040
C1541       C  0.45395934  0.89576871  0.20137327    -0.10400
C1542       C  0.45766899  0.91613375  0.19194830    -0.11960
C1543       C  0.10454983  0.56100771  0.20163760    -0.10400
C1544       C  0.08436206  0.54630763  0.19173181    -0.11960
C1545       C  0.42429270  0.88449049  0.12088120    -0.10400
C1546       C  0.44128218  0.90997906  0.12746098    -0.11960
C1547       C  0.08539403  0.53670352  0.12699253    -0.10400
C1548       C  0.11071509  0.54497273  0.12040425    -0.11960
C1549       C  0.46284400  0.55423010  0.12800313    -0.10400
C1550       C  0.45426949  0.57099478  0.12143769    -0.11960
C1551       C  0.36686024  0.61351200  0.20829768    -0.10400
C1552       C  0.37560592  0.59665766  0.21450088    -0.11960
C1553       C  0.45590870  0.54253863  0.19268216    -0.10400
C1554       C  0.44022309  0.54690916  0.20240346    -0.11960
C1555       C  0.41451500  0.96318507  0.30854273    -0.10400
C1556       C  0.39340994  0.95845463  0.29932481    -0.11960
C1557       C  0.36310664  0.47960755  0.25049941    -0.13560
C1558       C  0.36662265  0.50920687  0.24916848    -0.28740
H1559       H  0.37000993  0.46933990  0.24098549     0.15460
H1560       H  0.35878537  0.51841293  0.25881822     0.16040
C1561       C  0.27802216  0.90664440  0.28732775    -0.10400
C1562       C  0.25254697  0.88842858  0.29351248    -0.11960
C1563       C  0.11252195  0.87039078  0.29444028    -0.10400
C1564       C  0.09509033  0.87787597  0.28781785    -0.11960
C1565       C  0.11728135  0.72046366  0.28722532    -0.10400
C1566       C  0.12588324  0.74622723  0.29339069    -0.11960
C1567       C  0.06755717  0.95670033  0.37866553    -0.10400
C1568       C  0.04979826  0.96403512  0.37220072    -0.11960
C1569       C  0.12002762  0.89416725  0.36787952    -0.10400
C1570       C  0.12523130  0.87834649  0.35861683    -0.11960
C1571       C  0.26192387  0.55415953  0.45472019    -0.10400
C1572       C  0.27991938  0.57980134  0.46085219    -0.11960
C1573       C  0.16049087  0.97356066  0.41214183    -0.13560
C1574       C  0.17393328  0.95919373  0.42024114    -0.28740
H1575       H  0.16492664  0.99720959  0.41573882     0.15460
H1576       H  0.16663551  0.93432912  0.41737066     0.16040
C1577       C  0.44700438  0.71050441  0.45549918    -0.10400
C1578       C  0.42145577  0.70316607  0.46148122    -0.11960
C1579       C  0.03316258  0.58858209  0.37507984    -0.10400
C1580       C  0.04128746  0.61406925  0.38144549    -0.11960
C1581       C  0.10864814  0.72710481  0.36607955    -0.10400
C1582       C  0.12274361  0.74806350  0.35654538    -0.11960
C1583       C  0.02171555  0.69043491  0.42319517    -0.13560
C1584       C  0.05013005  0.70449583  0.41553207    -0.28740
H1585       H  0.00191342  0.66726014  0.41918221     0.15460
H1586       H  0.06845624  0.72906889  0.41864998     0.16040
C1587       C  0.28899011  0.73649034  0.45255950    -0.10400
C1588       C  0.29753292  0.71975906  0.45904307    -0.11960
C1589       C  0.38429297  0.93352449  0.37958014    -0.10400
C1590       C  0.40937154  0.95019384  0.37272249    -0.11960
C1591       C  0.26901983  0.87975671  0.36765591    -0.10400
C1592       C  0.24877760  0.87371594  0.35777085    -0.11960
C1593       C  0.30384884  0.85412789  0.41751363    -0.13560
C1594       C  0.29561400  0.82281934  0.41779317    -0.28740
H1595       H  0.30291192  0.86617190  0.42811302     0.15460
H1596       H  0.29847594  0.81183016  0.40722659     0.16040
C1597       C  0.08323179  0.78798048  0.47538498    -0.10400
C1598       C  0.06160531  0.77190892  0.46634033    -0.11960
C1599       C  0.21797028  0.93903182  0.46798493    -0.10400
C1600       C  0.21258935  0.91820202  0.47739602    -0.11960
C1601       C  0.21249069  0.79310257  0.47606357    -0.10400
C1602       C  0.22742240  0.78850579  0.46605418    -0.11960
C1603       C  0.21872337  0.92009984  0.54026160    -0.10400
C1604       C  0.23638788  0.94614644  0.54612200    -0.11960
C1605       C  0.07787934  0.79566224  0.53851566    -0.10400
C1606       C  0.05280815  0.78941555  0.54469121    -0.11960
C1607       C  0.20789201  0.76123719  0.54829203    -0.10400
C1608       C  0.19959093  0.77793170  0.54146916    -0.11960
O1609       O  0.71167125  0.32366137  0.52164216    -0.78930
C1610       C  0.60302617  0.30163184  0.48919716     1.00430
O1611       O  0.61887686  0.28791655  0.49211457    -0.68040
O1612       O  0.67022172  0.28395821  0.49786376    -0.71630
Al1613     Al  0.64143271  0.29141184  0.51071250     1.48980
C1614       C  0.69297475  0.30267111  0.48883499     0.95680
O1615       O  0.71334487  0.39004721  0.49556377    -0.77860
O1616       O  0.67744054  0.39314983  0.52172666    -0.71410
Al1617     Al  0.70756966  0.35460784  0.50876564     1.90120
O1618       O  0.66351316  0.37752506  0.49030952    -0.70480
O1619       O  0.62274543  0.33985689  0.52848887    -0.70330
O1620       O  0.60781712  0.32637864  0.49684565    -0.75990
O1621       O  0.60712663  0.28907927  0.52354226    -0.74200
O1622       O  0.66448740  0.33449438  0.50968997    -1.10330
O1623       O  0.66191776  0.29013158  0.52943632    -0.69520
C1624       C  0.69188720  0.30079047  0.53035051     1.01190
C1625       C  0.69330942  0.39397205  0.48761164     0.97590
Al1626     Al  0.64457143  0.35733678  0.50940559     1.55560
O1627       O  0.70662035  0.33293178  0.49019125    -0.74150
C1628       C  0.60407311  0.31019187  0.53098782     1.01760
C1629       C  0.70193447  0.39700499  0.52934666     0.96640
O1630       O  0.71312173  0.37854813  0.52724592    -0.79470
C1631       C  0.85170005  0.40553235  0.38307894     0.06000
C1632       C  0.84449703  0.38202120  0.39464923    -0.10150
C1633       C  0.81220258  0.35780311  0.39752253     0.03500
C1634       C  0.78736669  0.35708243  0.38821187    -0.08670
C1635       C  0.79466040  0.38073173  0.37671351     0.05990
C1636       C  0.82678012  0.40492428  0.37423128    -0.08090
H1637       H  0.86398770  0.38257022  0.40138707     0.11590
H1638       H  0.76245619  0.33783205  0.38951930     0.09120
H1639       H  0.83250024  0.42268929  0.36505140     0.08960
C1640       C  0.77413107  0.25932459  0.44867288     0.06000
C1641       C  0.75229953  0.26023593  0.45925991    -0.10150
C1642       C  0.73904272  0.27974710  0.45626206     0.03500
C1643       C  0.74732175  0.29829416  0.44263854    -0.08670
C1644       C  0.76951727  0.29825621  0.43196152     0.05990
C1645       C  0.78314735  0.27862027  0.43502913    -0.08090
H1646       H  0.74598949  0.24610313  0.46996475     0.11590
H1647       H  0.73699269  0.31354720  0.44053724     0.09120
H1648       H  0.80008917  0.27795222  0.42687337     0.08960
C1649       C  0.55317435  0.15007094  0.38476658     0.06000
C1650       C  0.54396844  0.16031665  0.39830923    -0.10150
C1651       C  0.55733411  0.19379356  0.40122837     0.03500
C1652       C  0.57946120  0.21627400  0.39047854    -0.08670
C1653       C  0.58790626  0.20596776  0.37693193     0.05990
C1654       C  0.57490328  0.17299535  0.37412100    -0.08090
H1655       H  0.52710301  0.14253534  0.40651291     0.11590
H1656       H  0.58962806  0.24201174  0.39247678     0.09120
H1657       H  0.58133844  0.16512939  0.36349357     0.08960
C1658       C  0.97853549  0.22102809  0.44938477     0.06000
C1659       C  0.50077830  0.24181480  0.45955126    -0.10150
C1660       C  0.53262249  0.24912973  0.45725102     0.03500
C1661       C  0.53955294  0.23307000  0.44549924    -0.08670
C1662       C  0.51462692  0.20977726  0.43579605     0.05990
C1663       C  0.98919153  0.21062228  0.43640890    -0.08090
H1664       H  0.99296055  0.25081563  0.47020288     0.11590
H1665       H  0.56422814  0.23827834  0.44426995     0.09120
H1666       H  0.97164883  0.19360381  0.42812509     0.08960
C1667       C  0.73631928  0.01654447  0.44915569     0.06000
C1668       C  0.73648869  0.49725849  0.45924663    -0.10150
C1669       C  0.71184147  0.46534179  0.45667348     0.03500
C1670       C  0.68834404  0.45848567  0.44515703    -0.08670
C1671       C  0.68965119  0.48349088  0.43584769     0.05990
C1672       C  0.71529721  0.00524661  0.43609814    -0.08090
H1673       H  0.75414874  0.50263263  0.46847401     0.11590
H1674       H  0.66871955  0.43372870  0.44381046     0.09120
H1675       H  0.71462219  0.02249876  0.42814252     0.08960
C1676       C  0.58978147  0.44395461  0.38529547     0.06000
C1677       C  0.60976153  0.45344956  0.39872219    -0.10150
C1678       C  0.63002309  0.44044415  0.40144249     0.03500
C1679       C  0.62998734  0.41833822  0.39065742    -0.08670
C1680       C  0.61070018  0.40954802  0.37723513     0.05990
C1681       C  0.59055159  0.42221203  0.37456698    -0.08090
H1682       H  0.60917962  0.47033104  0.40697221     0.11590
H1683       H  0.64572257  0.40847436  0.39251657     0.09120
H1684       H  0.57587967  0.41558412  0.36400151     0.08960
O1685       O  0.65293348  0.38123370  0.31092814    -0.78930
C1686       C  0.63462882  0.27405405  0.34362454     1.00430
O1687       O  0.62066482  0.28997968  0.34151264    -0.68040
O1688       O  0.61434541  0.34010871  0.33572565    -0.71630
Al1689     Al  0.62187872  0.31150470  0.32287218     1.48980
C1690       C  0.63320848  0.36360729  0.34436338     0.95680
O1691       O  0.72027074  0.38426298  0.33739420    -0.77860
O1692       O  0.72368170  0.34884226  0.31071918    -0.71410
Al1693     Al  0.68465483  0.37828625  0.32399875     1.90120
O1694       O  0.70901967  0.33449075  0.34190538    -0.70480
O1695       O  0.66991817  0.29444280  0.30373057    -0.70330
O1696       O  0.65833410  0.27869470  0.33522094    -0.75990
O1697       O  0.61935397  0.27721424  0.31007209    -0.74200
O1698       O  0.66502073  0.33527882  0.32318022    -1.10330
O1699       O  0.61852202  0.33077391  0.30421606    -0.69520
C1700       C  0.62936232  0.36065516  0.30266516     1.01190
C1701       C  0.72469120  0.36416554  0.34506043     0.97590
Al1702     Al  0.68830679  0.31579715  0.32285982     1.55560
O1703       O  0.66335913  0.37779130  0.34259481    -0.74150
C1704       C  0.64011197  0.27498142  0.30191899     1.01760
C1705       C  0.72744391  0.37341664  0.30334240     0.96640
O1706       O  0.70866092  0.38417586  0.30548893    -0.79470
C1707       C  0.81524703  0.42830593  0.28349853     0.06000
C1708       C  0.82570042  0.44868404  0.27022944    -0.10150
C1709       C  0.85921229  0.46833209  0.26715611     0.03500
C1710       C  0.88151103  0.46724996  0.27745512    -0.08670
C1711       C  0.87111028  0.44744733  0.29066166     0.05990
C1712       C  0.83807631  0.42798243  0.29368459    -0.08090
H1713       H  0.80798695  0.44881830  0.26237154     0.11590
H1714       H  0.90730597  0.48245968  0.27535541     0.09120
H1715       H  0.83013198  0.41293531  0.30409934     0.08960
C1716       C  0.88585618  0.07864786  0.21803370     0.06000
C1717       C  0.90731687  0.07527095  0.20823994    -0.10150
C1718       C  0.91545381  0.05167513  0.21135092     0.03500
C1719       C  0.90186755  0.03109996  0.22428837    -0.08670
C1720       C  0.88006241  0.03416314  0.23423721     0.05990
C1721       C  0.87246585  0.05838378  0.23109268    -0.08090
H1722       H  0.91712850  0.09055315  0.19796879     0.11590
H1723       H  0.90860993  0.01307151  0.22662213     0.09120
H1724       H  0.85559187  0.06091972  0.23855513     0.08960
O1725       O  0.95121557  0.45780036  0.14115728    -0.78930
C1726       C  0.55777355  0.03028265  0.17826836     1.00430
O1727       O  0.55318458  0.00622400  0.17009418    -0.68040
O1728       O  0.00066063  0.45806533  0.17809230    -0.71630
Al1729     Al  0.51972300  0.48016046  0.15901349     1.48980
C1730       C  0.97088644  0.44136750  0.18082223     0.95680
O1731       O  0.94952075  0.00164181  0.17558040    -0.77860
O1732       O  0.00156711  0.05058342  0.13920757    -0.71410
Al1733     Al  0.95578240  0.48035703  0.15990584     1.90120
O1734       O  0.98856807  0.05138282  0.17085685    -0.70480
O1735       O  0.55486943  0.04432356  0.14435299    -0.70330
O1736       O  0.54221675  0.04446617  0.17570654    -0.75990
O1737       O  0.53734429  0.99350696  0.13849611    -0.74200
O1738       O  0.99463336  0.00218908  0.15742445    -1.10330
O1739       O  0.98652620  0.44281923  0.14674858    -0.69520
C1740       C  0.96238267  0.43938684  0.13900762     1.01190
C1741       C  0.96399164  0.03137256  0.17862829     0.97590
Al1742     Al  0.52057407  0.04227264  0.15698154     1.55560
O1743       O  0.95052467  0.44465375  0.17277199    -0.74150
C1744       C  0.55682367  0.02313673  0.13640862     1.01760
C1745       C  0.97198734  0.03982400  0.13665004     0.96640
O1746       O  0.95041554  0.01581549  0.14418273    -0.79470
C1747       C  0.61499882  0.14905048  0.26576962     0.06000
C1748       C  0.62334841  0.18128148  0.26865837    -0.10150
C1749       C  0.61064566  0.18887668  0.28167779     0.03500
C1750       C  0.58918299  0.16435700  0.29173959    -0.08670
C1751       C  0.58032606  0.13221217  0.28890399     0.05990
C1752       C  0.59315776  0.12447585  0.27596984    -0.08090
H1753       H  0.64022079  0.20047537  0.26099007     0.11590
H1754       H  0.57987639  0.17039239  0.30197867     0.09120
H1755       H  0.58578962  0.09937657  0.27385322     0.08960
C1756       C  0.68328670  0.11026524  0.21833067     0.06000
C1757       C  0.65897158  0.08917705  0.20798597    -0.10150
C1758       C  0.62643308  0.07716716  0.21158445     0.03500
C1759       C  0.61803391  0.08624324  0.22559516    -0.08670
C1760       C  0.64224355  0.10746222  0.23602363     0.05990
C1761       C  0.67502250  0.11953596  0.23238694    -0.08090
H1762       H  0.66540944  0.08249344  0.19699615     0.11590
H1763       H  0.59275016  0.07706497  0.22833506     0.09120
H1764       H  0.69382486  0.13601488  0.24037909     0.08960
C1765       C  0.57385453  0.39196625  0.28282875     0.06000
C1766       C  0.55309687  0.38168619  0.26962959    -0.10150
C1767       C  0.53248612  0.39438368  0.26698926     0.03500
C1768       C  0.53299393  0.41693596  0.27768933    -0.08670
C1769       C  0.55313493  0.42657276  0.29085317     0.05990
C1770       C  0.57353883  0.41418542  0.29338919    -0.08090
H1771       H  0.55340411  0.36451045  0.26148214     0.11590
H1772       H  0.51711905  0.42666216  0.27592601     0.09120
H1773       H  0.58885656  0.42146970  0.30374697     0.08960
C1774       C  0.92552289  0.31285410  0.21714070     0.06000
C1775       C  0.92749990  0.33882702  0.20876312    -0.10150
C1776       C  0.95231240  0.37032870  0.21186514     0.03500
C1777       C  0.97521142  0.37611886  0.22354828    -0.08670
C1778       C  0.97313788  0.35032191  0.23249971     0.05990
C1779       C  0.94835920  0.31845893  0.22896184    -0.08090
H1780       H  0.91033033  0.33439266  0.19940668     0.11590
H1781       H  0.99500301  0.40066541  0.22530118     0.09120
H1782       H  0.94683301  0.29819589  0.23536458     0.08960
O1783       O  0.95856563  0.45428247  0.36289194    -0.78930
C1784       C  0.53123565  0.06413473  0.32214712     1.00430
O1785       O  0.50647792  0.05954427  0.32964685    -0.68040
O1786       O  0.95391408  0.99983142  0.32229045    -0.71630
Al1787     Al  0.97471774  0.01946450  0.34118437     1.48980
C1788       C  0.94134389  0.46840698  0.32247523     0.95680
O1789       O  0.00302024  0.45685883  0.32615445    -0.77860
O1790       O  0.54574894  0.50626441  0.36414872    -0.71410
Al1791     Al  0.98193514  0.45779813  0.34450250     1.90120
O1792       O  0.55094373  0.49729304  0.33249497    -0.70480
O1793       O  0.54358687  0.06083829  0.35686772    -0.70330
O1794       O  0.54533647  0.04882726  0.32544650    -0.75990
O1795       O  0.99316097  0.04146010  0.36007352    -0.74200
O1796       O  0.00128992  0.50083735  0.34422602    -1.10330
O1797       O  0.94202762  0.48748909  0.35545808    -0.69520
C1798       C  0.93896788  0.46437451  0.36389305     1.01190
C1799       C  0.53228608  0.47358752  0.32384726     0.97590
Al1800     Al  0.54157791  0.02650096  0.34411062     1.55560
O1801       O  0.94581611  0.44973752  0.33121535    -0.74150
C1802       C  0.52225291  0.06384894  0.36410182     1.01760
C1803       C  0.53533267  0.47645432  0.36559413     0.96640
O1804       O  0.51219657  0.45585349  0.35719762    -0.79470
O1805       O  0.81956797  0.21470255  0.97735515    -0.78930
C1806       C  0.80109436  0.10663015  0.00928541     1.00430
O1807       O  0.78687197  0.12226696  0.00706365    -0.68040
O1808       O  0.78029789  0.17237848  0.00159553    -0.71630
Al1809     Al  0.78885214  0.14455123  0.98857775     1.48980
C1810       C  0.79866857  0.19568979  0.01047655     0.95680
O1811       O  0.88634950  0.21771967  0.00418742    -0.77860
O1812       O  0.89145815  0.18356684  0.97773636    -0.71410
Al1813     Al  0.85103188  0.21165875  0.99056651     1.90120
O1814       O  0.87511738  0.16796579  0.00870629    -0.70480
O1815       O  0.83869502  0.12899739  0.96995032    -0.70330
O1816       O  0.82543220  0.11201331  0.00121112    -0.75990
O1817       O  0.78763162  0.11109930  0.97551658    -0.74200
O1818       O  0.83190657  0.16871906  0.98943204    -1.10330
O1819       O  0.78611273  0.16446672  0.97000836    -0.69520
C1820       C  0.79649195  0.19431895  0.96880133     1.01190
C1821       C  0.89061756  0.19761624  0.01192829     0.97590
Al1822     Al  0.85570345  0.14977444  0.98935498     1.55560
O1823       O  0.82889992  0.21019265  0.00899452    -0.74150
C1824       C  0.80907538  0.10938715  0.96767110     1.01760
C1825       C  0.89503250  0.20806150  0.97035426     0.96640
O1826       O  0.87573979  0.21829076  0.97225674    -0.79470
C1827       C  0.75653438  0.27710565  0.05135442     0.06000
C1828       C  0.75652637  0.25478535  0.04073909    -0.10150
C1829       C  0.77689762  0.24230526  0.04317470     0.03500
C1830       C  0.79726038  0.25196333  0.05623760    -0.08670
C1831       C  0.79798816  0.27457989  0.06693389     0.05990
C1832       C  0.77743326  0.28731899  0.06444502    -0.08090
H1833       H  0.74106572  0.24756019  0.03043558     0.11590
H1834       H  0.81315450  0.24222948  0.05791307     0.09120
H1835       H  0.77729567  0.30454702  0.07261614     0.08960
C1836       C  0.90331317  0.35481362  0.11741346     0.06000
C1837       C  0.88058641  0.34883013  0.10550842    -0.10150
C1838       C  0.85631956  0.31683707  0.10194121     0.03500
C1839       C  0.85456171  0.29124123  0.11091411    -0.08670
C1840       C  0.87734740  0.29736694  0.12268603     0.05990
C1841       C  0.90171733  0.32906020  0.12586423    -0.08090
H1842       H  0.88182393  0.36890744  0.09904979     0.11590
H1843       H  0.83508366  0.26656193  0.10909237     0.09120
H1844       H  0.91881813  0.33378769  0.13529242     0.08960
C1845       C  0.72373701  0.02628907  0.06667875     0.06000
C1846       C  0.74542282  0.04860550  0.05575278    -0.10150
C1847       C  0.75425708  0.03812409  0.04239943     0.03500
C1848       C  0.74200655  0.00514673  0.03994216    -0.08670
C1849       C  0.71480889  0.48058647  0.05171620     0.05990
C1850       C  0.69822819  0.48756908  0.06318487    -0.08090
H1851       H  0.75500823  0.07433146  0.05748191     0.11590
H1852       H  0.74870076  0.99711394  0.02945474     0.09120
H1853       H  0.67957791  0.46805933  0.07009739     0.08960
C1854       C  0.64181856  0.04936145  0.11598695     0.06000
C1855       C  0.64872297  0.03330205  0.10420909    -0.10150
C1856       C  0.68091788  0.04147177  0.10134632     0.03500
C1857       C  0.70584728  0.06520321  0.11087535    -0.08670
C1858       C  0.69875835  0.08112419  0.12261619     0.05990
C1859       C  0.66683460  0.07329061  0.12506979    -0.08090
H1860       H  0.62914783  0.01457687  0.09729992     0.11590
H1861       H  0.73063630  0.07082092  0.10951790     0.09120
H1862       H  0.66130932  0.08507063  0.13442584     0.08960
C1863       C  0.51518005  0.24007918  0.05118328     0.06000
C1864       C  0.99279047  0.23794643  0.04071438    -0.10150
C1865       C  0.96062506  0.21413074  0.04342791     0.03500
C1866       C  0.95336911  0.19055956  0.05494612    -0.08670
C1867       C  0.97829805  0.19101015  0.06405140     0.05990
C1868       C  0.50442914  0.21940356  0.06432118    -0.08090
H1869       H  0.99848880  0.25565077  0.03150648     0.11590
H1870       H  0.92840192  0.17155116  0.05643204     0.09120
H1871       H  0.52195773  0.21923298  0.07229894     0.08960
C1872       C  0.94042745  0.09337747  0.11534966     0.06000
C1873       C  0.94970682  0.11293957  0.10181583    -0.10150
C1874       C  0.93582396  0.13232628  0.09870809     0.03500
C1875       C  0.91312739  0.13180154  0.10922977    -0.08670
C1876       C  0.90450729  0.11281271  0.12269690     0.05990
C1877       C  0.91800855  0.09359532  0.12574908    -0.08090
H1878       H  0.96708536  0.11269088  0.09381092     0.11590
H1879       H  0.90262250  0.14690056  0.10713041     0.09120
H1880       H  0.91149261  0.07921871  0.13638235     0.08960
O1881       O  0.87590331  0.15602703  0.18795159    -0.78930
C1882       C  0.76816521  0.13364341  0.15480083     1.00430
O1883       O  0.78398884  0.11996487  0.15786990    -0.68040
O1884       O  0.83509915  0.11604876  0.16412664    -0.71630
Al1885     Al  0.80599094  0.12348590  0.17663173     1.48980
C1886       C  0.85780333  0.13475594  0.15509488     0.95680
O1887       O  0.87784766  0.22191659  0.16151031    -0.77860
O1888       O  0.84144315  0.22512601  0.18749806    -0.71410
Al1889     Al  0.87195710  0.18668042  0.17483305     1.90120
O1890       O  0.82807114  0.20938045  0.15607033    -0.70480
O1891       O  0.78694630  0.17175030  0.19414457    -0.70330
O1892       O  0.77249731  0.15819833  0.16247008    -0.75990
O1893       O  0.77145236  0.12101310  0.18915867    -0.74200
O1894       O  0.82891861  0.16653166  0.17557251    -1.10330
O1895       O  0.82597520  0.12252677  0.19554265    -0.69520
C1896       C  0.85595107  0.13359036  0.19679692     1.01190
C1897       C  0.85788837  0.22569363  0.15342267     0.97590
Al1898     Al  0.80890513  0.18925254  0.17511949     1.55560
O1899       O  0.87137212  0.16499989  0.15638617    -0.74150
C1900       C  0.76851368  0.14206926  0.19668520     1.01760
C1901       C  0.86568558  0.22876211  0.19525695     0.96640
O1902       O  0.87698762  0.21044144  0.19318291    -0.79470
O1903       O  0.62214817  0.28493139  0.02967673    -0.78930
C1904       C  0.69451787  0.39431916  0.99082203     1.00430
O1905       O  0.67040614  0.38915659  0.99902491    -0.68040
O1906       O  0.62038924  0.33251720  0.99260427    -0.71630
Al1907     Al  0.64093663  0.35219822  0.01157030     1.48980
C1908       C  0.60507488  0.30265155  0.98983955     0.95680
O1909       O  0.66686671  0.29070497  0.99247536    -0.77860
O1910       O  0.71174388  0.33890724  0.03058880    -0.71410
Al1911     Al  0.64578683  0.29039433  0.01109346     1.90120
O1912       O  0.71582471  0.32915631  0.99902198    -0.70480
O1913       O  0.70984871  0.39199139  0.02453475    -0.70330
O1914       O  0.70894303  0.37890717  0.99312310    -0.75990
O1915       O  0.65904445  0.37439743  0.03055075    -0.74200
O1916       O  0.66486212  0.33340485  0.01156690    -1.10330
O1917       O  0.60598413  0.31917965  0.02389844    -0.69520
C1918       C  0.60289700  0.29520611  0.03159530     1.01190
C1919       C  0.69698944  0.30530798  0.99052505     0.97590
Al1920     Al  0.70795518  0.35771267  0.01184198     1.55560
O1921       O  0.60977861  0.28323352  0.99788459    -0.74150
C1922       C  0.68874891  0.39423974  0.03241312     1.01760
C1923       C  0.70132488  0.30911253  0.03217699     0.96640
O1924       O  0.67787345  0.28827446  0.02400440    -0.79470
C1925       C  0.59291148  0.14788924  0.88301947     0.06000
C1926       C  0.61588237  0.15388791  0.89481637    -0.10150
C1927       C  0.64035494  0.18587256  0.89832027     0.03500
C1928       C  0.64197726  0.21148213  0.88937434    -0.08670
C1929       C  0.61894564  0.20538347  0.87769953     0.05990
C1930       C  0.59444270  0.17367143  0.87460845    -0.08090
H1931       H  0.61467975  0.13379570  0.90124474     0.11590
H1932       H  0.66150944  0.23614951  0.89113382     0.09120
H1933       H  0.57714603  0.16894724  0.86527904     0.08960
C1934       C  0.74043803  0.22530065  0.94927023     0.06000
C1935       C  0.73952707  0.24695814  0.96000091    -0.10150
C1936       C  0.71879762  0.25898883  0.95752103     0.03500
C1937       C  0.69897708  0.24960648  0.94426608    -0.08670
C1938       C  0.69907863  0.22764079  0.93340910     0.05990
C1939       C  0.71995458  0.21523963  0.93597296    -0.08090
H1940       H  0.75463800  0.25408733  0.97042770     0.11590
H1941       H  0.68287870  0.25908622  0.94254357     0.09120
H1942       H  0.72069221  0.19850251  0.92768534     0.08960
C1943       C  0.85565774  0.45347134  0.88472033     0.06000
C1944       C  0.84901791  0.46972248  0.89656758    -0.10150
C1945       C  0.81690699  0.46209789  0.89942224     0.03500
C1946       C  0.79188990  0.43873552  0.88977874    -0.08670
C1947       C  0.79864813  0.42251873  0.87805873     0.05990
C1948       C  0.83041548  0.42982046  0.87562607    -0.08090
H1949       H  0.86871449  0.48815759  0.90352914     0.11590
H1950       H  0.76722434  0.43353606  0.89103154     0.09120
H1951       H  0.83565530  0.41780485  0.86627597     0.08960
C1952       C  0.77721181  0.02239450  0.94831327     0.06000
C1953       C  0.75338436  0.49623693  0.96092953    -0.10150
C1954       C  0.74149054  0.46348777  0.95799219     0.03500
C1955       C  0.75110208  0.45400327  0.94456197    -0.08670
C1956       C  0.77327977  0.47707277  0.93402700     0.05990
C1957       C  0.78656308  0.01133278  0.93517720    -0.08090
H1958       H  0.74864683  0.00876036  0.96948313     0.11590
H1959       H  0.74170089  0.42841507  0.94246162     0.09120
H1960       H  0.80358782  0.02861506  0.92685380     0.08960
C1961       C  0.55518678  0.41246843  0.88444115     0.06000
C1962       C  0.54001874  0.39033119  0.89672519    -0.10150
C1963       C  0.54807278  0.36638017  0.89994371     0.03500
C1964       C  0.57178766  0.36529547  0.89049489    -0.08670
C1965       C  0.58686811  0.38751019  0.87826684     0.05990
C1966       C  0.57854742  0.41098606  0.87529309    -0.08090
H1967       H  0.52161700  0.39145817  0.90360382     0.11590
H1968       H  0.57854603  0.34719737  0.89219705     0.09120
H1969       H  0.58959136  0.42754586  0.86554231     0.08960
C1970       C  0.98237179  0.26401168  0.94999254     0.06000
C1971       C  0.50434924  0.26377972  0.95969710    -0.10150
C1972       C  0.53736752  0.28289257  0.95648693     0.03500
C1973       C  0.54757217  0.30111820  0.94272237    -0.08670
C1974       C  0.52497066  0.30117090  0.93225890     0.05990
C1975       C  0.99088329  0.28238737  0.93611743    -0.08090
H1976       H  0.49653804  0.24970281  0.97042114     0.11590
H1977       H  0.57326714  0.31584263  0.94027325     0.09120
H1978       H  0.97219797  0.28105893  0.92843186     0.08960
O1979       O  0.61985078  0.29430884  0.80726667    -0.78930
C1980       C  0.72815899  0.36988331  0.84629625     1.00430
O1981       O  0.72372345  0.34550925  0.83845719    -0.68040
O1982       O  0.66776585  0.29459730  0.84495886    -0.71630
Al1983     Al  0.68704178  0.31466123  0.82590136     1.48980
C1984       C  0.63784425  0.27764366  0.84726427     0.95680
O1985       O  0.62364484  0.33762607  0.84458008    -0.77860
O1986       O  0.67033508  0.38268614  0.80607609    -0.71410
Al1987     Al  0.62399460  0.31712533  0.82590085     1.90120
O1988       O  0.66053918  0.38715602  0.83788541    -0.70480
O1989       O  0.72468643  0.38301439  0.81191419    -0.70330
O1990       O  0.71205255  0.38336201  0.84353570    -0.75990
O1991       O  0.70887449  0.33215882  0.80687734    -0.74200
O1992       O  0.66707030  0.33744918  0.82550094    -1.10330
O1993       O  0.65448505  0.27881011  0.81356095    -0.69520
C1994       C  0.63074616  0.27554619  0.80549765     1.01190
C1995       C  0.63724403  0.36770904  0.84654163     0.97590
Al1996     Al  0.69004110  0.38049266  0.82486291     1.55560
O1997       O  0.61794606  0.28120119  0.83895011    -0.74150
C1998       C  0.72748312  0.36180484  0.80431341     1.01760
C1999       C  0.64043875  0.37175960  0.80463007     0.96640
O2000       O  0.62023736  0.34854148  0.81307498    -0.79470
C2001       C  0.92519670  0.11043074  0.71765217     0.06000
C2002       C  0.94569956  0.12110004  0.73092116    -0.10150
C2003       C  0.96631246  0.10856682  0.73387066     0.03500
C2004       C  0.96607661  0.08578810  0.72344340    -0.08670
C2005       C  0.94618780  0.07576645  0.71021607     0.05990
C2006       C  0.92574525  0.08797556  0.70733348    -0.08090
H2007       H  0.94520712  0.13846119  0.73887547     0.11590
H2008       H  0.98200710  0.07620584  0.72545728     0.09120
H2009       H  0.91062844  0.08040194  0.69690449     0.08960
C2010       C  0.57256858  0.19049967  0.78394863     0.06000
C2011       C  0.54989340  0.18396547  0.77192878    -0.10150
C2012       C  0.52609458  0.15175280  0.76836551     0.03500
C2013       C  0.52479540  0.12649398  0.77744768    -0.08670
C2014       C  0.54753263  0.13318108  0.78933126     0.05990
C2015       C  0.57140021  0.16507053  0.79250606    -0.08090
H2016       H  0.55077721  0.20379649  0.76539458     0.11590
H2017       H  0.50568556  0.10164566  0.77564861     0.09120
H2018       H  0.58843494  0.17019119  0.80201626     0.08960
O2019       O  0.55821489  0.01674478  0.64271916    -0.78930
C2020       C  0.96848530  0.02855828  0.67805868     1.00430
O2021       O  0.99875308  0.04261542  0.67670407    -0.68040
O2022       O  0.55434988  0.05337545  0.66799794    -0.71630
Al2023     Al  0.51766045  0.04490357  0.65506085     1.48980
C2024       C  0.55968127  0.03475174  0.67632725     0.95680
O2025       O  0.99057098  0.44527522  0.67242864    -0.77860
O2026       O  0.95199893  0.44135796  0.64546404    -0.71410
Al2027     Al  0.52126209  0.48021376  0.66020353     1.90120
O2028       O  0.95156977  0.45568947  0.67664834    -0.70480
O2029       O  0.95618287  0.99662352  0.63756860    -0.70330
O2030       O  0.94993277  0.00545853  0.66908683    -0.75990
O2031       O  0.48491187  0.04597385  0.64227954    -0.74200
O2032       O  0.00100643  0.00051179  0.65743161    -1.10330
O2033       O  0.54080225  0.04974152  0.63634912    -0.69520
C2034       C  0.56071133  0.04017701  0.63471777     1.01190
C2035       C  0.96573675  0.44045150  0.67992042     0.97590
Al2036     Al  0.95394668  0.47626542  0.65757271     1.55560
O2037       O  0.54433470  0.00465680  0.67416635    -0.74150
C2038       C  0.96629567  0.02643870  0.63652478     1.01760
C2039       C  0.97333332  0.43839459  0.63821418     0.96640
O2040       O  0.00297807  0.45729602  0.64072510    -0.79470
C2041       C  0.81270360  0.39069883  0.78292998     0.06000
C2042       C  0.82230117  0.37998817  0.76962385    -0.10150
C2043       C  0.85568674  0.39281893  0.76658664     0.03500
C2044       C  0.87860650  0.41572802  0.77700142    -0.08670
C2045       C  0.86895632  0.42563238  0.79026265     0.05990
C2046       C  0.83616763  0.41325390  0.79318593    -0.08090
H2047       H  0.80419011  0.36254751  0.76166887     0.11590
H2048       H  0.90426237  0.42557813  0.77491919     0.09120
H2049       H  0.82886016  0.42088711  0.80360969     0.08960
C2050       C  0.88337699  0.31226449  0.71755415     0.06000
C2051       C  0.90700109  0.33803737  0.70877339    -0.10150
C2052       C  0.91335680  0.36947036  0.71133721     0.03500
C2053       C  0.89620474  0.37537785  0.72286793    -0.08670
C2054       C  0.87296389  0.34991284  0.73229275     0.05990
C2055       C  0.86630606  0.31810513  0.72930038    -0.08090
H2056       H  0.91969910  0.33345193  0.69952946     0.11590
H2057       H  0.90063179  0.39977427  0.72411710     0.09120
H2058       H  0.84794735  0.29802996  0.73604876     0.08960
C2059       C  0.60820403  0.42567326  0.78376893     0.06000
C2060       C  0.61850424  0.44545486  0.77027468    -0.10150
C2061       C  0.60569649  0.46572502  0.76702132     0.03500
C2062       C  0.58310645  0.46594632  0.77735749    -0.08670
C2063       C  0.57350953  0.44688750  0.79080028     0.05990
C2064       C  0.58590961  0.42671222  0.79400224    -0.08090
H2065       H  0.63578959  0.44469552  0.76238845     0.11590
H2066       H  0.57338161  0.48168123  0.77511429     0.09120
H2067       H  0.57863525  0.41222570  0.80460444     0.08960
C2068       C  0.68416890  0.07636768  0.71697035     0.06000
C2069       C  0.66161651  0.07610194  0.70639201    -0.10150
C2070       C  0.62849681  0.05648677  0.70915921     0.03500
C2071       C  0.61772987  0.03714906  0.72252891    -0.08670
C2072       C  0.63979096  0.03662608  0.73319665     0.05990
C2073       C  0.67337504  0.05641186  0.73036878    -0.08090
H2074       H  0.66985463  0.09078192  0.69586321     0.11590
H2075       H  0.59188958  0.02179961  0.72444890     0.09120
H2076       H  0.69088310  0.05667445  0.73851064     0.08960
O2077       O  0.51018278  0.05943769  0.85352470    -0.78930
C2078       C  0.52674704  0.47103183  0.82233501     1.00430
O2079       O  0.54077900  0.50130279  0.82366236    -0.68040
O2080       O  0.54786933  0.05804131  0.82853716    -0.71630
Al2081     Al  0.54156295  0.02189167  0.84139167     1.48980
C2082       C  0.52819775  0.06156618  0.82002489     0.95680
O2083       O  0.94373837  0.49808545  0.83112340    -0.77860
O2084       O  0.94297211  0.45866383  0.85579810    -0.71410
Al2085     Al  0.97729636  0.02335659  0.84109743     1.90120
O2086       O  0.95534137  0.46093880  0.82417071    -0.70480
O2087       O  0.49616304  0.45840725  0.86279989    -0.70330
O2088       O  0.00635024  0.45534921  0.82921317    -0.75990
O2089       O  0.54475799  0.99017624  0.85415114    -0.74200
O2090       O  0.99719056  0.00056249  0.84178374    -1.10330
O2091       O  0.54450099  0.04384462  0.86017718    -0.69520
C2092       C  0.53367338  0.06268521  0.86177922     1.01190
C2093       C  0.93898384  0.47456131  0.82250174     0.97590
Al2094     Al  0.97739433  0.46189480  0.84257557     1.55560
O2095       O  0.49817776  0.04459368  0.82206485    -0.74150
C2096       C  0.52610832  0.46902382  0.86384337     1.01760
C2097       C  0.94079160  0.47927075  0.86419735     0.96640
O2098       O  0.96029259  0.50906627  0.86257282    -0.79470
O2099       O  0.78187969  0.12477046  0.47005190    -0.78930
C2100       C  0.89092568  0.19538578  0.50987448     1.00430
O2101       O  0.88557482  0.17149997  0.50141262    -0.68040
O2102       O  0.82841137  0.12165382  0.50748906    -0.71630
Al2103     Al  0.84844113  0.14253449  0.48869436     1.48980
C2104       C  0.79841850  0.10605292  0.50990245     0.95680
O2105       O  0.78615501  0.16738544  0.50786911    -0.77860
O2106       O  0.83571859  0.21485013  0.47072712    -0.71410
Al2107     Al  0.78668167  0.14749673  0.48896624     1.90120
O2108       O  0.82533045  0.21671797  0.50259431    -0.70480
O2109       O  0.88849095  0.21180232  0.47632234    -0.70330
O2110       O  0.87529277  0.20967505  0.50793539    -0.75990
O2111       O  0.87090510  0.16110795  0.46985905    -0.74200
O2112       O  0.82974823  0.16659060  0.48890970    -1.10330
O2113       O  0.81537301  0.10784315  0.47613793    -0.69520
C2114       C  0.79164436  0.10505195  0.46828654     1.01190
C2115       C  0.80094049  0.19723994  0.51063427     0.97590
Al2116     Al  0.85416062  0.20964049  0.48931076     1.55560
O2117       O  0.77917559  0.11084272  0.50172000    -0.74150
C2118       C  0.89082230  0.19086554  0.46823224     1.01760
C2119       C  0.80598979  0.20435785  0.46876599     0.96640
O2120       O  0.78489154  0.18028443  0.47645927    -0.79470
C2121       C  0.72133966  0.24353346  0.54992004     0.06000
C2122       C  0.74435778  0.24175892  0.54057716    -0.10150
C2123       C  0.75175298  0.21741889  0.54309850     0.03500
C2124       C  0.73612875  0.19475158  0.55511921    -0.08670
C2125       C  0.71320608  0.19650403  0.56488431     0.05990
C2126       C  0.70586391  0.22105120  0.56203457    -0.08090
H2127       H  0.75567166  0.25863734  0.53096785     0.11590
H2128       H  0.74128602  0.17535724  0.55635444     0.09120
H2129       H  0.68779480  0.22240387  0.56909095     0.08960
C2130       C  0.64856177  0.09575038  0.61505749     0.06000
C2131       C  0.65948652  0.11528883  0.60149592    -0.10150
C2132       C  0.69308900  0.13421723  0.59845377     0.03500
C2133       C  0.71505818  0.13339965  0.60907727    -0.08670
C2134       C  0.70418282  0.11473878  0.62267148     0.05990
C2135       C  0.67106261  0.09592632  0.62563472    -0.08090
H2136       H  0.64212936  0.11525379  0.59332124     0.11590
H2137       H  0.74089125  0.14802576  0.60693997     0.09120
H2138       H  0.66277998  0.08160387  0.63627391     0.08960
C2139       C  0.51734743  0.27853089  0.55115820     0.06000
C2140       C  0.99311641  0.25600587  0.54034196    -0.10150
C2141       C  0.95997245  0.24269021  0.54289373     0.03500
C2142       C  0.94925493  0.25107123  0.55631683    -0.08670
C2143       C  0.97138300  0.27328307  0.56720907     0.05990
C2144       C  0.50733469  0.28818639  0.56461179    -0.08090
H2145       H  0.00137318  0.24969780  0.52981373     0.11590
H2146       H  0.92344577  0.24072781  0.55811909     0.09120
H2147       H  0.52525546  0.30530953  0.57273790     0.08960
C2148       C  0.94744253  0.35340808  0.61744102     0.06000
C2149       C  0.96355625  0.34703573  0.60548940    -0.10150
C2150       C  0.95551440  0.31499418  0.60223219     0.03500
C2151       C  0.93184272  0.28967462  0.61153608    -0.08670
C2152       C  0.91581338  0.29620635  0.62342391     0.05990
C2153       C  0.92354139  0.32799507  0.62628487    -0.08090
H2154       H  0.98223457  0.36690528  0.59875680     0.11590
H2155       H  0.92634564  0.26498140  0.60990002     0.09120
H2156       H  0.91168806  0.33308839  0.63575894     0.08960
C2157       C  0.75695471  0.48390035  0.55020702     0.06000
C2158       C  0.75968343  0.00544676  0.54034701    -0.10150
C2159       C  0.77953803  0.03858100  0.54301337     0.03500
C2160       C  0.79965171  0.04951723  0.55619155    -0.08670
C2161       C  0.80065167  0.02756641  0.56676434     0.05990
C2162       C  0.77713947  0.49386050  0.56361041    -0.08090
H2163       H  0.74437649  0.99709500  0.52998771     0.11590
H2164       H  0.81511597  0.07537125  0.55806331     0.09120
H2165       H  0.77684962  0.47587157  0.57139671     0.08960
C2166       C  0.90697303  0.05303442  0.61670340     0.06000
C2167       C  0.88433208  0.03702425  0.60463433    -0.10150
C2168       C  0.85997203  0.04453042  0.60153731     0.03500
C2169       C  0.85817916  0.06766739  0.61111344    -0.08670
C2170       C  0.88079291  0.08353710  0.62317333     0.05990
C2171       C  0.90517913  0.07629045  0.62585804    -0.08090
H2172       H  0.88565646  0.01878066  0.59769068     0.11590
H2173       H  0.83877017  0.07278008  0.60957889     0.09120
H2174       H  0.92218078  0.08802233  0.63542610     0.08960
O2175       O  0.79113239  0.11950744  0.69578321    -0.78930
C2176       C  0.86395742  0.22542602  0.65490782     1.00430
O2177       O  0.84024608  0.22137424  0.66313869    -0.68040
O2178       O  0.78916385  0.16463480  0.65749394    -0.71630
Al2179     Al  0.81038182  0.18528389  0.67617949     1.48980
C2180       C  0.77249913  0.13451665  0.65557317     0.95680
O2181       O  0.83230098  0.12038671  0.65811560    -0.77860
O2182       O  0.88065270  0.17073049  0.69516961    -0.71410
Al2183     Al  0.81310369  0.12240453  0.67692216     1.90120
O2184       O  0.88223274  0.15847422  0.66343588    -0.70480
O2185       O  0.87978321  0.22421761  0.68886628    -0.70330
O2186       O  0.87743638  0.20922352  0.65738082    -0.75990
O2187       O  0.82924861  0.20824890  0.69483551    -0.74200
O2188       O  0.83334142  0.16549032  0.67652835    -1.10330
O2189       O  0.77521955  0.15348440  0.68897298    -0.69520
C2190       C  0.77205334  0.13012962  0.69726492     1.01190
C2191       C  0.86212486  0.13427457  0.65539448     0.97590
Al2192     Al  0.87643733  0.18873907  0.67628218     1.55560
O2193       O  0.77654384  0.11530926  0.66415141    -0.74150
C2194       C  0.85909171  0.22733112  0.69673970     1.01760
C2195       C  0.86960650  0.14099910  0.69730497     0.96640
O2196       O  0.84543959  0.11998262  0.68957178    -0.79470
C2197       C  0.87754314  0.10533641  0.63367817    -0.10400
C2198       C  0.87278058  0.12087410  0.64333890    -0.11960
C2199       C  0.83642120  0.02755679  0.58848272    -0.13560
C2200       C  0.82226458  0.04157339  0.58066764    -0.28740
H2201       H  0.83253683  0.00429131  0.58454336     0.15460
H2202       H  0.82887866  0.06614762  0.58378556     0.16040
C2203       C  0.89335501  0.27071111  0.63359614    -0.10400
C2204       C  0.87743416  0.24990067  0.64301853    -0.11960
C2205       C  0.95771432  0.28042747  0.58122087    -0.13560
C2206       C  0.97225509  0.30856653  0.58921378    -0.28740
H2207       H  0.93298434  0.26236131  0.58419271     0.15460
H2208       H  0.99569696  0.32810464  0.58538765     0.16040
C2209       C  0.74767878  0.12240510  0.64383336    -0.10400
C2210       C  0.72730609  0.11682233  0.63406865    -0.11960
C2211       C  0.69594101  0.17281974  0.57784078    -0.13560
C2212       C  0.70695135  0.15449244  0.58422459    -0.28740
H2213       H  0.67489239  0.17212111  0.58301265     0.15460
H2214       H  0.72956442  0.15716637  0.58012126     0.16040
C2215       C  0.78831665  0.20869756  0.52272580    -0.10400
C2216       C  0.77321881  0.21400742  0.53241888    -0.11960
C2217       C  0.78646136  0.08162064  0.52179536    -0.10400
C2218       C  0.78120878  0.06154040  0.53164538    -0.11960
C2219       C  0.91603092  0.20776416  0.52152310    -0.10400
C2220       C  0.93671510  0.22217020  0.53128068    -0.11960
C2221       C  0.74432750  0.11317155  0.70731156    -0.10400
C2222       C  0.71810678  0.09651908  0.71328043    -0.11960
C2223       C  0.55287820  0.45034335  0.80182083    -0.10400
C2224       C  0.53870017  0.45762383  0.81105300    -0.11960
C2225       C  0.61365686  0.48655624  0.75293034    -0.13560
C2226       C  0.64205796  0.50065407  0.74521937    -0.28740
H2227       H  0.59582898  0.49318122  0.74977502     0.15460
H2228       H  0.60120431  0.00864933  0.75006926     0.16040
C2229       C  0.87540701  0.27989075  0.71324283    -0.10400
C2230       C  0.86910177  0.25479915  0.70689335    -0.11960
C2231       C  0.89286594  0.44687993  0.80140635    -0.10400
C2232       C  0.91371267  0.46176121  0.81099481    -0.11960
C2233       C  0.85553606  0.35612664  0.74519823    -0.13560
C2234       C  0.86880721  0.38510246  0.75248748    -0.28740
H2235       H  0.83293184  0.33608896  0.74955202     0.15460
H2236       H  0.89287832  0.40390375  0.74902717     0.16040
C2237       C  0.60524223  0.05397735  0.69773532    -0.10400
C2238       C  0.58456711  0.04764675  0.68803614    -0.11960
C2239       C  0.93575215  0.39523706  0.70124410    -0.10400
C2240       C  0.95184946  0.41614523  0.69188616    -0.11960
C2241       C  0.94895377  0.03682797  0.62668398    -0.10400
C2242       C  0.93067539  0.04418838  0.62078778    -0.11960
C2243       C  0.61459486  0.07555688  0.61879145    -0.10400
C2244       C  0.58846395  0.05830427  0.62476765    -0.11960
C2245       C  0.95673449  0.38598501  0.62176898    -0.10400
C2246       C  0.96390296  0.41128464  0.62803345    -0.11960
C2247       C  0.53957653  0.08643414  0.80838989    -0.10400
C2248       C  0.54468907  0.10758027  0.79921344    -0.11960
C2249       C  0.88689986  0.13115066  0.70755401    -0.10400
C2250       C  0.90417303  0.12281599  0.71377103    -0.11960
C2251       C  0.95539479  0.04051172  0.68951910    -0.10400
C2252       C  0.94889777  0.05486752  0.69903562    -0.11960
C2253       C  0.98779560  0.11693568  0.74779387    -0.13560
C2254       C  0.00106093  0.14499352  0.75585882    -0.28740
H2255       H  0.99519731  0.09958355  0.75071646     0.15460
H2256       H  0.99657681  0.16405945  0.75216274     0.16040
C2257       C  0.77920252  0.37866504  0.78698430    -0.10400
C2258       C  0.75408160  0.37121108  0.79363655    -0.11960
C2259       C  0.62085240  0.40499207  0.78796733    -0.10400
C2260       C  0.62964678  0.38822905  0.79434659    -0.11960
C2261       C  0.61367370  0.24828624  0.79522007    -0.10400
C2262       C  0.59570776  0.22309843  0.78866709    -0.11960
C2263       C  0.54520529  0.43512361  0.88006687    -0.10400
C2264       C  0.53705295  0.45249665  0.87388062    -0.11960
C2265       C  0.62435083  0.37934515  0.85835771    -0.10400
C2266       C  0.60890331  0.38451985  0.86786653    -0.11960
C2267       C  0.53122282  0.34325778  0.91318538    -0.13560
C2268       C  0.53759539  0.32004637  0.91762748    -0.28740
H2269       H  0.51398545  0.34646074  0.92007244     0.15460
H2270       H  0.55576062  0.31703003  0.91166889     0.16040
C2271       C  0.91364510  0.46922558  0.87447153    -0.10400
C2272       C  0.88833392  0.46231769  0.88068236    -0.11960
C2273       C  0.77341034  0.40009069  0.86767989    -0.10400
C2274       C  0.75276906  0.38393844  0.85816742    -0.11960
C2275       C  0.78120336  0.46434573  0.91985280    -0.13560
C2276       C  0.80998714  0.47871671  0.91243104    -0.28740
H2277       H  0.76301945  0.43995488  0.91639414     0.15460
H2278       H  0.82952676  0.50172318  0.91677055     0.16040
C2279       C  0.55075848  0.09013026  0.87197350    -0.10400
C2280       C  0.56908270  0.11541029  0.87838426    -0.11960
C2281       C  0.62685903  0.25269418  0.85891619    -0.10400
C2282       C  0.62193488  0.23136372  0.86798326    -0.11960
C2283       C  0.66398510  0.19213100  0.91125748    -0.13560
C2284       C  0.67774537  0.22005856  0.91944819    -0.28740
H2285       H  0.66812927  0.17277102  0.91482810     0.15460
H2286       H  0.67074874  0.23778527  0.91667920     0.16040
C2287       C  0.70691803  0.41895994  0.97903777    -0.10400
C2288       C  0.72113982  0.43953941  0.96928880    -0.11960
C2289       C  0.70964706  0.29333930  0.97882764    -0.10400
C2290       C  0.71596380  0.27925296  0.96906403    -0.11960
C2291       C  0.56091756  0.28549761  0.96778599    -0.10400
C2292       C  0.58102616  0.29098863  0.97770166    -0.11960
C2293       C  0.86974217  0.12184671  0.14360344    -0.10400
C2294       C  0.88387535  0.11540395  0.13398877    -0.11960
C2295       C  0.54907580  0.26038543  0.04751312    -0.10400
C2296       C  0.57522014  0.27740920  0.04156199    -0.11960
C2297       C  0.94320881  0.15322194  0.08468166    -0.13560
C2298       C  0.97134109  0.16704573  0.07679007    -0.28740
H2299       H  0.92538932  0.15997181  0.08168930     0.15460
H2300       H  0.99062528  0.16296909  0.08060466     0.16040
C2301       C  0.74402025  0.11967304  0.14272862    -0.10400
C2302       C  0.72374415  0.10360409  0.13306278    -0.11960
C2303       C  0.70573132  0.44770817  0.04804529    -0.10400
C2304       C  0.69837375  0.42186528  0.04230566    -0.11960
C2305       C  0.68791024  0.02485184  0.08846933    -0.13560
C2306       C  0.71616168  0.03971744  0.08064803    -0.28740
H2307       H  0.66866534  0.00127675  0.08454837     0.15460
H2308       H  0.73389959  0.06455674  0.08369142     0.16040
C2309       C  0.86884570  0.25018683  0.14159593    -0.10400
C2310       C  0.87408584  0.27142379  0.13244604    -0.11960
C2311       C  0.73577310  0.29001025  0.04798220    -0.10400
C2312       C  0.71867775  0.29899311  0.04218773    -0.11960
C2313       C  0.81990195  0.28269528  0.08065250    -0.13560
C2314       C  0.83291750  0.31044254  0.08894637    -0.28740
H2315       H  0.82759385  0.26544497  0.08330377     0.15460
H2316       H  0.82816512  0.32947376  0.08552762     0.16040
C2317       C  0.77908977  0.22153493  0.03171287    -0.10400
C2318       C  0.78542384  0.20731117  0.02203811    -0.11960
C2319       C  0.78839256  0.08169355  0.02091426    -0.10400
C2320       C  0.77423493  0.06131402  0.03075113    -0.11960
C2321       C  0.91474191  0.20811950  0.02404734    -0.10400
C2322       C  0.93540752  0.21227907  0.03343275    -0.11960
C2323       C  0.92308829  0.22627013  0.96067403    -0.10400
C2324       C  0.94904058  0.24343892  0.95458318    -0.11960
C2325       C  0.79969367  0.08246808  0.95733130    -0.10400
C2326       C  0.79062723  0.05632852  0.95149466    -0.11960
C2327       C  0.77935091  0.20475911  0.95874753    -0.10400
C2328       C  0.76186561  0.21313527  0.95276426    -0.11960
C2329       C  0.90140351  0.28063764  0.21234220    -0.10400
C2330       C  0.88284864  0.25584915  0.20563381    -0.11960
C2331       C  0.55092918  0.44738427  0.30231533    -0.10400
C2332       C  0.54507089  0.46175998  0.31212718    -0.11960
C2333       C  0.49706721  0.35839375  0.24497770    -0.13560
C2334       C  0.51079121  0.38642714  0.25311055    -0.28740
H2335       H  0.00087410  0.33692899  0.24888537     0.15460
H2336       H  0.50367058  0.40403925  0.25029239     0.16040
C2337       C  0.71645939  0.12297869  0.21378662    -0.10400
C2338       C  0.74189213  0.13205430  0.20723985    -0.11960
C2339       C  0.54465149  0.08777241  0.30988154    -0.10400
C2340       C  0.55958668  0.10759499  0.29989529    -0.11960
C2341       C  0.63270493  0.11606432  0.25084009    -0.13560
C2342       C  0.62848426  0.14169294  0.25173309    -0.28740
H2343       H  0.62736726  0.09994424  0.26074209     0.15460
H2344       H  0.63523947  0.15794505  0.24174707     0.16040
C2345       C  0.95572721  0.39628145  0.20206079    -0.10400
C2346       C  0.96051502  0.41713844  0.19275604    -0.11960
C2347       C  0.60189291  0.05709488  0.20039668    -0.10400
C2348       C  0.58178774  0.04285472  0.19039989    -0.11960
C2349       C  0.92693579  0.38722028  0.12212576    -0.10400
C2350       C  0.94517575  0.41229617  0.12867455    -0.11960
C2351       C  0.58366199  0.03258888  0.12609849    -0.10400
C2352       C  0.60905941  0.03989443  0.11995347    -0.11960
C2353       C  0.96279885  0.05702249  0.12601531    -0.10400
C2354       C  0.95409645  0.07361461  0.11943649    -0.11960
C2355       C  0.86715639  0.11793503  0.20722160    -0.10400
C2356       C  0.87575586  0.10113044  0.21359904    -0.11960
C2357       C  0.95101207  0.04213376  0.19080201    -0.10400
C2358       C  0.93617082  0.04741351  0.20061162    -0.11960
C2359       C  0.91599559  0.45552172  0.31100816    -0.10400
C2360       C  0.89476987  0.44936402  0.30166296    -0.11960
C2361       C  0.86009972  0.98270895  0.24896568    -0.13560
C2362       C  0.86597916  0.01326329  0.24827501    -0.28740
H2363       H  0.86423226  0.97153622  0.23885939     0.15460
H2364       H  0.86043280  0.02334204  0.25840956     0.16040
C2365       C  0.78140861  0.40815585  0.28741611    -0.10400
C2366       C  0.75528518  0.39121502  0.29343474    -0.11960
C2367       C  0.61228407  0.37100959  0.29251655    -0.10400
C2368       C  0.59495477  0.37946239  0.28642587    -0.11960
C2369       C  0.62123201  0.22191236  0.28569193    -0.10400
C2370       C  0.62982184  0.24776288  0.29171386    -0.11960
C2371       C  0.56919515  0.45698864  0.38170363    -0.10400
C2372       C  0.55233100  0.46609121  0.37573405    -0.11960
C2373       C  0.61379656  0.38949552  0.36568758    -0.10400
C2374       C  0.62048769  0.37561083  0.35599048    -0.11960
C2375       C  0.75636449  0.05062927  0.45269589    -0.10400
C2376       C  0.77344017  0.07707796  0.45844313    -0.11960
C2377       C  0.65119406  0.44806379  0.41540563    -0.13560
C2378       C  0.66563763  0.47655999  0.42308233    -0.28740
H2379       H  0.65767838  0.43009176  0.41847772     0.15460
H2380       H  0.66190207  0.49595820  0.41910502     0.16040
C2381       C  0.94464969  0.20882657  0.45255550    -0.10400
C2382       C  0.91855771  0.20066388  0.45830655    -0.11960
C2383       C  0.53170648  0.09069258  0.37461010    -0.10400
C2384       C  0.54017406  0.11633731  0.38095336    -0.11960
C2385       C  0.60809968  0.22931970  0.36538164    -0.10400
C2386       C  0.62221938  0.24952910  0.35546435    -0.11960
C2387       C  0.52143648  0.19299788  0.42287508    -0.13560
C2388       C  0.55010530  0.20709729  0.41538640    -0.28740
H2389       H  0.50174663  0.17001744  0.41859638     0.15460
H2390       H  0.56852247  0.23146545  0.41875705     0.16040
C2391       C  0.78737936  0.23900231  0.45257269    -0.10400
C2392       C  0.79618382  0.22200513  0.45870258    -0.11960
C2393       C  0.88469487  0.42888815  0.37917395    -0.10400
C2394       C  0.91079101  0.44690569  0.37348808    -0.11960
C2395       C  0.76957354  0.37873944  0.36654808    -0.10400
C2396       C  0.74900604  0.37464636  0.35710311    -0.11960
C2397       C  0.80521229  0.33369772  0.41024762    -0.13560
C2398       C  0.77663571  0.31880385  0.41779280    -0.28740
H2399       H  0.82480216  0.33040545  0.41440022     0.15460
H2400       H  0.75828672  0.32465244  0.41454026     0.16040
C2401       C  0.57835169  0.28749429  0.47732140    -0.10400
C2402       C  0.55774072  0.27140729  0.46776144    -0.11960
C2403       C  0.70912040  0.43990016  0.46670425    -0.10400
C2404       C  0.70412740  0.41872080  0.47587428    -0.11960
C2405       C  0.70492000  0.28972312  0.47729350    -0.10400
C2406       C  0.71886874  0.28295774  0.46767503    -0.11960
C2407       C  0.71926406  0.42453672  0.53956301    -0.10400
C2408       C  0.73636569  0.45024998  0.54597884    -0.11960
C2409       C  0.57693029  0.30035911  0.54127385    -0.10400
C2410       C  0.55106327  0.29155845  0.54739039    -0.11960
C2411       C  0.71167899  0.26664089  0.54588677    -0.10400
C2412       C  0.70319641  0.28412733  0.54009911    -0.11960
O2413       O  0.71187431  0.81982029  0.52442318    -0.78930
C2414       C  0.60798786  0.80277657  0.48895182     1.00430
O2415       O  0.62346515  0.78865621  0.49180168    -0.68040
O2416       O  0.67275834  0.78214767  0.49884206    -0.71630
Al2417     Al  0.64338604  0.78990897  0.51097395     1.48980
C2418       C  0.69676976  0.80112751  0.49053051     0.95680
O2419       O  0.71884823  0.88840478  0.49794662    -0.77860
O2420       O  0.68122066  0.89199792  0.52282786    -0.71410
Al2421     Al  0.71066710  0.85208425  0.51120658     1.90120
O2422       O  0.66991885  0.87729695  0.49136665    -0.70480
O2423       O  0.62553398  0.83894626  0.52866970    -0.70330
O2424       O  0.61266446  0.82711875  0.49690172    -0.75990
O2425       O  0.60837853  0.78805613  0.52292263    -0.74200
O2426       O  0.66766405  0.83298775  0.51080539    -1.10330
O2427       O  0.66080756  0.78624304  0.53018836    -0.69520
C2428       C  0.69041380  0.79658783  0.53242827     1.01190
C2429       C  0.70002630  0.89315116  0.48939630     0.97590
Al2430     Al  0.64890395  0.85686869  0.51004871     1.55560
O2431       O  0.71153075  0.83120191  0.49272696    -0.74150
C2432       C  0.60585693  0.80926043  0.53057843     1.01760
C2433       C  0.70458064  0.89499676  0.53111467     0.96640
O2434       O  0.71469172  0.87548671  0.52973670    -0.79470
C2435       C  0.85138067  0.90538243  0.38261303     0.06000
C2436       C  0.84475830  0.88218279  0.39427930    -0.10150
C2437       C  0.81259497  0.85795948  0.39743997     0.03500
C2438       C  0.78738632  0.85682720  0.38831593    -0.08670
C2439       C  0.79417870  0.88014117  0.37673829     0.05990
C2440       C  0.82608703  0.90440497  0.37397547    -0.08090
H2441       H  0.86454250  0.88296491  0.40084942     0.11590
H2442       H  0.76257368  0.83747424  0.38982729     0.09120
H2443       H  0.83135346  0.92188152  0.36469925     0.08960
C2444       C  0.77636586  0.75973564  0.44814246     0.06000
C2445       C  0.75489134  0.76022608  0.45907684    -0.10150
C2446       C  0.74139144  0.77964826  0.45656665     0.03500
C2447       C  0.74905882  0.79850959  0.44305377    -0.08670
C2448       C  0.77092678  0.79880512  0.43204087     0.05990
C2449       C  0.78474087  0.77921311  0.43462708    -0.08090
H2450       H  0.74917059  0.74594103  0.46971425     0.11590
H2451       H  0.73861325  0.81376496  0.44132484     0.09120
H2452       H  0.80145419  0.77880392  0.42623370     0.08960
C2453       C  0.55343859  0.64827357  0.38573449     0.06000
C2454       C  0.54482826  0.65908071  0.39925746    -0.10150
C2455       C  0.55825250  0.69264757  0.40182872     0.03500
C2456       C  0.57982045  0.71465794  0.39079169    -0.08670
C2457       C  0.58771606  0.70379518  0.37728877     0.05990
C2458       C  0.57466336  0.67072252  0.37477237    -0.08090
H2459       H  0.52839174  0.64165787  0.40771065     0.11590
H2460       H  0.59002376  0.74047539  0.39254631     0.09120
H2461       H  0.58067963  0.66241781  0.36416353     0.08960
C2462       C  0.97835373  0.71883201  0.45038440     0.06000
C2463       C  0.50511213  0.74343357  0.46017675    -0.10150
C2464       C  0.53678601  0.75057773  0.45751141     0.03500
C2465       C  0.54299243  0.73377964  0.44588733    -0.08670
C2466       C  0.51750266  0.70997048  0.43663700     0.05990
C2467       C  0.98396339  0.70128775  0.43887282    -0.08090
H2468       H  0.99969021  0.75595487  0.46814525     0.11590
H2469       H  0.56756558  0.73882142  0.44441379     0.09120
H2470       H  0.96381083  0.68263037  0.43221675     0.08960
C2471       C  0.73764842  0.52243099  0.45041967     0.06000
C2472       C  0.73748068  0.99439155  0.45946904    -0.10150
C2473       C  0.71820775  0.96116141  0.45678893     0.03500
C2474       C  0.69767114  0.94990422  0.44375882    -0.08670
C2475       C  0.69575564  0.97157034  0.43333262     0.05990
C2476       C  0.71425159  0.51563539  0.43878080    -0.08090
H2477       H  0.75308600  0.00302905  0.46971881     0.11590
H2478       H  0.68261038  0.92400335  0.44188798     0.09120
H2479       H  0.71518901  0.53527575  0.43204405     0.08960
C2480       C  0.58995151  0.94711915  0.38325820     0.06000
C2481       C  0.61259651  0.96288900  0.39533843    -0.10150
C2482       C  0.63633523  0.95464395  0.39862089     0.03500
C2483       C  0.63752303  0.93093981  0.38924157    -0.08670
C2484       C  0.61490543  0.91522291  0.37716768     0.05990
C2485       C  0.59111989  0.92327944  0.37426399    -0.08090
H2486       H  0.61176956  0.98156199  0.40214941     0.11590
H2487       H  0.65649649  0.92524999  0.39093571     0.09120
H2488       H  0.57411536  0.91169617  0.36468591     0.08960
O2489       O  0.65181768  0.88010684  0.31200379    -0.78930
C2490       C  0.63370612  0.77222464  0.34417798     1.00430
O2491       O  0.61997998  0.78846742  0.34246242    -0.68040
O2492       O  0.61426138  0.83944595  0.33746214    -0.71630
Al2493     Al  0.62071572  0.81030394  0.32402074     1.48980
C2494       C  0.63392620  0.86335037  0.34578552     0.95680
O2495       O  0.71987832  0.88269305  0.33744434    -0.77860
O2496       O  0.72204939  0.84700041  0.31115806    -0.71410
Al2497     Al  0.68380723  0.87684626  0.32456113     1.90120
O2498       O  0.70775353  0.83276975  0.34237349    -0.70480
O2499       O  0.66823512  0.79296227  0.30424860    -0.70330
O2500       O  0.65715841  0.77693947  0.33559732    -0.75990
O2501       O  0.61772307  0.77584159  0.31073606    -0.74200
O2502       O  0.66379059  0.83379859  0.32392276    -1.10330
O2503       O  0.61665367  0.82972932  0.30558448    -0.69520
C2504       C  0.62791102  0.85963997  0.30392010     1.01190
C2505       C  0.72386088  0.86254121  0.34529718     0.97590
Al2506     Al  0.68689256  0.81412622  0.32335559     1.55560
O2507       O  0.66387450  0.87717456  0.34345177    -0.74150
C2508       C  0.63842466  0.77349222  0.30247660     1.01760
C2509       C  0.72512874  0.87097762  0.30349968     0.96640
O2510       O  0.70641887  0.88177880  0.30572207    -0.79470
C2511       C  0.81054214  0.92542897  0.28167383     0.06000
C2512       C  0.81832786  0.94352514  0.26775662    -0.10150
C2513       C  0.85099060  0.96443233  0.26379067     0.03500
C2514       C  0.87555287  0.96700689  0.27373930    -0.08670
C2515       C  0.86765505  0.94891338  0.28757747     0.05990
C2516       C  0.83523827  0.92824324  0.29152643    -0.08090
H2517       H  0.79924907  0.94141497  0.26010792     0.11590
H2518       H  0.90075291  0.98315781  0.27072253     0.09120
H2519       H  0.82921086  0.91465003  0.30239514     0.08960
C2520       C  0.88473539  0.57401319  0.21730215     0.06000
C2521       C  0.90907496  0.57307283  0.20874199    -0.10150
C2522       C  0.91656307  0.54898490  0.21165212     0.03500
C2523       C  0.89983017  0.52580833  0.22328849    -0.08670
C2524       C  0.87577185  0.52693862  0.23236516     0.05990
C2525       C  0.86797961  0.55097368  0.22904943    -0.08090
H2526       H  0.92144299  0.59045914  0.19942907     0.11590
H2527       H  0.90513802  0.50655789  0.22490133     0.09120
H2528       H  0.84901157  0.55177337  0.23557910     0.08960
O2529       O  0.94867886  0.96123839  0.13763765    -0.78930
C2530       C  0.56060908  0.53436893  0.17990946     1.00430
O2531       O  0.55642646  0.51061796  0.17163016    -0.68040
O2532       O  0.99222577  0.95683756  0.17600395    -0.71630
Al2533     Al  0.51614254  0.97587462  0.15763112     1.48980
C2534       C  0.96204626  0.94072719  0.17772639     0.95680
O2535       O  0.95569670  0.50050432  0.17872861    -0.77860
O2536       O  0.00148081  0.54623957  0.14026658    -0.71410
Al2537     Al  0.95159678  0.98276257  0.15666381     1.90120
O2538       O  0.99198279  0.55020858  0.17204769    -0.70480
O2539       O  0.55738610  0.54914448  0.14601694    -0.70330
O2540       O  0.54408149  0.54759621  0.17766336    -0.75990
O2541       O  0.54148662  0.49860597  0.14005192    -0.74200
O2542       O  0.99882934  0.50098484  0.15921892    -1.10330
O2543       O  0.98175065  0.94415552  0.14436956    -0.69520
C2544       C  0.95883391  0.94183468  0.13596604     1.01190
C2545       C  0.96890802  0.53052476  0.18071719     0.97590
Al2546     Al  0.52246219  0.54586133  0.15900350     1.55560
O2547       O  0.94334805  0.94556992  0.16914459    -0.74150
C2548       C  0.56028732  0.52844282  0.13800745     1.01760
C2549       C  0.97151886  0.53495688  0.13889849     0.96640
O2550       O  0.95148672  0.51164544  0.14733652    -0.79470
C2551       C  0.60660652  0.64338521  0.26651545     0.06000
C2552       C  0.61878778  0.67676920  0.26913418    -0.10150
C2553       C  0.60901087  0.68681924  0.28256973     0.03500
C2554       C  0.58808817  0.66380086  0.29341922    -0.08670
C2555       C  0.57633508  0.63094141  0.29088513     0.05990
C2556       C  0.58521113  0.62081588  0.27743428    -0.08090
H2557       H  0.63505262  0.69453831  0.26074958     0.11590
H2558       H  0.58122855  0.67151707  0.30396117     0.09120
H2559       H  0.57589096  0.59515823  0.27561275     0.08960
C2560       C  0.68858081  0.61705656  0.21821170     0.06000
C2561       C  0.66337434  0.59330649  0.20913787    -0.10150
C2562       C  0.63163341  0.58615733  0.21148682     0.03500
C2563       C  0.62488358  0.60260976  0.22306944    -0.08670
C2564       C  0.64986307  0.62603436  0.23269710     0.05990
C2565       C  0.68192556  0.63342638  0.22997324    -0.08090
H2566       H  0.66863922  0.58123563  0.19982538     0.11590
H2567       H  0.60026257  0.59760008  0.22414737     0.09120
H2568       H  0.70162607  0.65197414  0.23689031     0.08960
C2569       C  0.57456552  0.89268884  0.28327124     0.06000
C2570       C  0.55513113  0.88320651  0.26963597    -0.10150
C2571       C  0.53538957  0.89665283  0.26644267     0.03500
C2572       C  0.53537127  0.91908806  0.27698105    -0.08670
C2573       C  0.55414215  0.92788895  0.29056372     0.05990
C2574       C  0.57376387  0.91483404  0.29370647    -0.08090
H2575       H  0.55575164  0.86602261  0.26160564     0.11590
H2576       H  0.52000378  0.92926139  0.27479386     0.09120
H2577       H  0.58801804  0.92150376  0.30441070     0.08960
C2578       C  0.92522053  0.81739461  0.21790456     0.06000
C2579       C  0.92382964  0.83939815  0.20760098    -0.10150
C2580       C  0.94322151  0.87260045  0.21019025     0.03500
C2581       C  0.96404918  0.88395797  0.22309182    -0.08670
C2582       C  0.96612641  0.86233063  0.23345991     0.05990
C2583       C  0.94645938  0.82869411  0.23082797    -0.08090
H2584       H  0.90808592  0.83067495  0.19739953     0.11590
H2585       H  0.97927241  0.90987271  0.22486924     0.09120
H2586       H  0.94729389  0.81146515  0.23873995     0.08960
O2587       O  0.95528591  0.95279267  0.35981779    -0.78930
C2588       C  0.53014248  0.56268801  0.32422716     1.00430
O2589       O  0.50563442  0.55731446  0.33213380    -0.68040
O2590       O  0.95771867  0.49860290  0.32417202    -0.71630
Al2591     Al  0.97748129  0.51968827  0.34306871     1.48980
C2592       C  0.93756147  0.96988396  0.31986501     0.95680
O2593       O  0.99747960  0.95594856  0.32230713    -0.77860
O2594       O  0.54257784  0.00615203  0.36291488    -0.71410
Al2595     Al  0.97757818  0.95668406  0.34106291     1.90120
O2596       O  0.54928955  0.99766109  0.33144701    -0.70480
O2597       O  0.54389197  0.55939393  0.35829870    -0.70330
O2598       O  0.54460815  0.54741170  0.32677426    -0.75990
O2599       O  0.99450683  0.54298241  0.36185327    -0.74200
O2600       O  0.99768710  0.99971469  0.34127097    -1.10330
O2601       O  0.93948883  0.98719885  0.35366834    -0.69520
C2602       C  0.93651754  0.96363450  0.36169140     1.01190
C2603       C  0.53077368  0.97475671  0.32238177     0.97590
Al2604     Al  0.54268893  0.52559801  0.34541246     1.55560
O2605       O  0.94139501  0.95020276  0.32817066    -0.74150
C2606       C  0.52238765  0.56148646  0.36592125     1.01760
C2607       C  0.53220398  0.97623575  0.36373330     0.96640
O2608       O  0.50940358  0.95636430  0.35495437    -0.79470
O2609       O  0.81910482  0.71395856  0.97906177    -0.78930
C2610       C  0.79945684  0.60779675  0.01325533     1.00430
O2611       O  0.78586927  0.62378702  0.01047173    -0.68040
O2612       O  0.78202438  0.67512623  0.00451814    -0.71630
Al2613     Al  0.78777655  0.64486970  0.99163909     1.48980
C2614       C  0.80205766  0.69908573  0.01272584     0.95680
O2615       O  0.88783313  0.71822735  0.00388805    -0.77860
O2616       O  0.88870642  0.67973870  0.97916906    -0.71410
Al2617     Al  0.85117520  0.71103780  0.99141889     1.90120
O2618       O  0.87503065  0.66904599  0.01082035    -0.70480
O2619       O  0.83498278  0.62463266  0.97358252    -0.70330
O2620       O  0.82374326  0.61220069  0.00538063    -0.75990
O2621       O  0.78445101  0.60954217  0.97897593    -0.74200
O2622       O  0.83084557  0.66789935  0.99169413    -1.10330
O2623       O  0.78446317  0.66349104  0.97276902    -0.69520
C2624       C  0.79536469  0.69330172  0.97105339     1.01190
C2625       C  0.89186507  0.69919720  0.01254230     0.97590
Al2626     Al  0.85373268  0.64805883  0.99217984     1.55560
O2627       O  0.83199543  0.71270661  0.01029359    -0.74150
C2628       C  0.80516489  0.60605431  0.97134508     1.01760
C2629       C  0.89153633  0.70291891  0.97080927     0.96640
O2630       O  0.87273687  0.71382182  0.97250532    -0.79470
C2631       C  0.75760654  0.78238274  0.04965352     0.06000
C2632       C  0.75896339  0.75833404  0.04099381    -0.10150
C2633       C  0.78337984  0.75126138  0.04388099     0.03500
C2634       C  0.80644535  0.76809301  0.05561766    -0.08670
C2635       C  0.80494472  0.79188849  0.06477894     0.05990
C2636       C  0.78055830  0.79923112  0.06148765    -0.08090
H2637       H  0.74168629  0.74592825  0.03160161     0.11590
H2638       H  0.82593281  0.76312179  0.05721231     0.09120
H2639       H  0.77949431  0.81802758  0.06806792     0.08960
C2640       C  0.90450720  0.85481807  0.11560607     0.06000
C2641       C  0.88423891  0.84379503  0.10225820    -0.10150
C2642       C  0.86443190  0.81014604  0.09949372     0.03500
C2643       C  0.86521459  0.78829908  0.11018588    -0.08670
C2644       C  0.88484491  0.79934031  0.12349751     0.05990
C2645       C  0.90448535  0.83247259  0.12618745    -0.08090
H2646       H  0.88430564  0.86113758  0.09409752     0.11590
H2647       H  0.84990027  0.76242209  0.10831370     0.09120
H2648       H  0.91942689  0.84089388  0.13666574     0.08960
C2649       C  0.70564559  0.51967526  0.06571336     0.06000
C2650       C  0.72936691  0.54445731  0.05614643    -0.10150
C2651       C  0.74609143  0.53742038  0.04481480     0.03500
C2652       C  0.73882187  0.50554260  0.04267884    -0.08670
C2653       C  0.72067850  0.98242305  0.05078222     0.05990
C2654       C  0.71116041  0.99283584  0.06413616    -0.08090
H2655       H  0.73450700  0.56913853  0.05712358     0.11590
H2656       H  0.75112408  0.49998922  0.03361177     0.09120
H2657       H  0.69463706  0.97518034  0.07248406     0.08960
C2658       C  0.64615500  0.55948027  0.11671661     0.06000
C2659       C  0.65555629  0.54978505  0.10301366    -0.10150
C2660       C  0.68886988  0.56305976  0.09969352     0.03500
C2661       C  0.71197858  0.58540459  0.11018726    -0.08670
C2662       C  0.70256522  0.59425257  0.12386245     0.05990
C2663       C  0.66979836  0.58144177  0.12710722    -0.08090
H2664       H  0.63732060  0.53271785  0.09498434     0.11590
H2665       H  0.73759192  0.59548754  0.10787282     0.09120
H2666       H  0.66266935  0.58826697  0.13784858     0.08960
C2667       C  0.51911773  0.73787707  0.05088416     0.06000
C2668       C  0.99418460  0.74039130  0.04190744    -0.10150
C2669       C  0.96125627  0.72042757  0.04483205     0.03500
C2670       C  0.95096805  0.70080688  0.05808545    -0.08670
C2671       C  0.97340195  0.70034134  0.06851081     0.05990
C2672       C  0.51297615  0.71464378  0.06249678    -0.08090
H2673       H  0.00198512  0.75532887  0.03145012     0.11590
H2674       H  0.92519194  0.68525315  0.06012109     0.09120
H2675       H  0.53299477  0.71555121  0.06889689     0.08960
C2676       C  0.94520595  0.59323191  0.11798389     0.06000
C2677       C  0.96245594  0.61615315  0.10623706    -0.10150
C2678       C  0.95591283  0.64113817  0.10309222     0.03500
C2679       C  0.93264173  0.64330577  0.11233148    -0.08670
C2680       C  0.91531480  0.62022786  0.12389585     0.05990
C2681       C  0.92152908  0.59519840  0.12665358    -0.08090
H2682       H  0.98088877  0.61458073  0.09960867     0.11590
H2683       H  0.92837020  0.66328661  0.11089757     0.09120
H2684       H  0.90876492  0.57791555  0.13595197     0.08960
O2685       O  0.87984189  0.65667950  0.18876952    -0.78930
C2686       C  0.77349061  0.64135513  0.15589861     1.00430
O2687       O  0.78948990  0.62734043  0.15746668    -0.68040
O2688       O  0.83975999  0.62072475  0.16274929    -0.71630
Al2689     Al  0.81058034  0.62699351  0.17601378     1.48980
C2690       C  0.86408121  0.64051599  0.15479746     0.95680
O2691       O  0.88471614  0.72639283  0.16432111    -0.77860
O2692       O  0.84807930  0.72778628  0.19015633    -0.71410
Al2693     Al  0.87764290  0.68949994  0.17664009     1.90120
O2694       O  0.83532955  0.71541518  0.15874270    -0.70480
O2695       O  0.79337573  0.67407974  0.19613132    -0.70330
O2696       O  0.77856450  0.66480402  0.16461474    -0.75990
O2697       O  0.77603037  0.62378014  0.18903595    -0.74200
O2698       O  0.83458502  0.67001384  0.17671606    -1.10330
O2699       O  0.82903968  0.62184497  0.19447704    -0.69520
C2700       C  0.85878585  0.63265352  0.19646992     1.01190
C2701       C  0.86533211  0.73128978  0.15634016     0.97590
Al2702     Al  0.81546327  0.69358189  0.17738705     1.55560
O2703       O  0.87837377  0.67036938  0.15753728    -0.74150
C2704       C  0.77383251  0.64421265  0.19756155     1.01760
C2705       C  0.87167029  0.73027686  0.19798128     0.96640
O2706       O  0.88206581  0.71121904  0.19577193    -0.79470
O2707       O  0.62185789  0.78708726  0.02675977    -0.78930
C2708       C  0.69455526  0.89805857  0.98935511     1.00430
O2709       O  0.67083682  0.89292350  0.99785972    -0.68040
O2710       O  0.62029802  0.83727622  0.99077149    -0.71630
Al2711     Al  0.64103176  0.85535729  0.00990531     1.48980
C2712       C  0.60465516  0.80765708  0.98748113     0.95680
O2713       O  0.66495265  0.79376109  0.98906846    -0.77860
O2714       O  0.71076960  0.83953524  0.02755300    -0.71410
Al2715     Al  0.64460528  0.79295578  0.00797017     1.90120
O2716       O  0.71434063  0.83090277  0.99575592    -0.70480
O2717       O  0.71007037  0.89351120  0.02261940    -0.70330
O2718       O  0.70837111  0.88185409  0.99094384    -0.75990
O2719       O  0.65954007  0.87604491  0.02915140    -0.74200
O2720       O  0.66431388  0.83592094  0.00907806    -1.10330
O2721       O  0.60593437  0.82190417  0.02198048    -0.69520
C2722       C  0.60312734  0.79769320  0.02933363     1.01190
C2723       C  0.69500714  0.80739639  0.98716049     0.97590
Al2724     Al  0.70734902  0.85952515  0.00923153     1.55560
O2725       O  0.60868485  0.78733952  0.99513149    -0.74150
C2726       C  0.68933597  0.89555808  0.03095205     1.01760
C2727       C  0.69982551  0.80960471  0.02881869     0.96640
O2728       O  0.67645242  0.78936896  0.02040853    -0.79470
C2729       C  0.59176375  0.65156713  0.88517652     0.06000
C2730       C  0.61125867  0.66179261  0.89877663    -0.10150
C2731       C  0.63026860  0.69523015  0.90218622     0.03500
C2732       C  0.62943207  0.71763703  0.89192133    -0.08670
C2733       C  0.61057553  0.70735929  0.87837289     0.05990
C2734       C  0.59171343  0.67445001  0.87500812    -0.08090
H2735       H  0.61128013  0.64400065  0.90659471     0.11590
H2736       H  0.64428128  0.74339949  0.89425852     0.09120
H2737       H  0.57744291  0.66665577  0.86430670     0.08960
C2738       C  0.73769611  0.72137739  0.95103155     0.06000
C2739       C  0.73749858  0.74614825  0.95962918    -0.10150
C2740       C  0.71342498  0.75383619  0.95696484     0.03500
C2741       C  0.68951763  0.73677147  0.94562342    -0.08670
C2742       C  0.68997348  0.71237531  0.93650609     0.05990
C2743       C  0.71403235  0.70449983  0.93951745    -0.08090
H2744       H  0.75542356  0.75868087  0.96875397     0.11590
H2745       H  0.67028456  0.74218411  0.94428388     0.09120
H2746       H  0.71432500  0.68527641  0.93294734     0.08960
C2747       C  0.85313877  0.95109326  0.88401927     0.06000
C2748       C  0.84710907  0.96819845  0.89558523    -0.10150
C2749       C  0.81520356  0.96075841  0.89858288     0.03500
C2750       C  0.78975902  0.93682752  0.88939823    -0.08670
C2751       C  0.79596409  0.91975235  0.87797807     0.05990
C2752       C  0.82756756  0.92679662  0.87534865    -0.08090
H2753       H  0.86710080  0.98715814  0.90219890     0.11590
H2754       H  0.76518723  0.93186355  0.89078113     0.09120
H2755       H  0.83241130  0.91418345  0.86614845     0.08960
C2756       C  0.77518872  0.51979126  0.95053376     0.06000
C2757       C  0.75520758  0.00020978  0.95913520    -0.10150
C2758       C  0.74214057  0.96707356  0.95681444     0.03500
C2759       C  0.75087721  0.95595396  0.94368517    -0.08670
C2760       C  0.77322853  0.97776052  0.93283621     0.05990
C2761       C  0.78559192  0.51036483  0.93708519    -0.08090
H2762       H  0.74602378  0.50345038  0.97147448     0.11590
H2763       H  0.74070598  0.93009925  0.94209126     0.09120
H2764       H  0.80249298  0.52857612  0.92904941     0.08960
C2765       C  0.55416265  0.91270471  0.88485377     0.06000
C2766       C  0.54385182  0.89495968  0.89890814    -0.10150
C2767       C  0.55550423  0.87422888  0.90305426     0.03500
C2768       C  0.57728012  0.87145144  0.89309338    -0.08670
C2769       C  0.58712990  0.88887021  0.87903679     0.05990
C2770       C  0.57559327  0.90941970  0.87497876    -0.08090
H2771       H  0.52725926  0.89746115  0.90658745     0.11590
H2772       H  0.58635466  0.85556345  0.89624710     0.09120
H2773       H  0.58302270  0.92262270  0.86399502     0.08960
C2774       C  0.97692461  0.75820725  0.94908019     0.06000
C2775       C  0.50264773  0.76445006  0.95937574    -0.10150
C2776       C  0.53428024  0.78813956  0.95569607     0.03500
C2777       C  0.54023704  0.80912098  0.94307224    -0.08670
C2778       C  0.51433544  0.80668847  0.93403275     0.05990
C2779       C  0.98485575  0.77631945  0.93513201    -0.08090
H2780       H  0.49814919  0.74875411  0.96938861     0.11590
H2781       H  0.56508500  0.82689225  0.94032313     0.09120
H2782       H  0.96586903  0.77343714  0.92719510     0.08960
O2783       O  0.61845317  0.79580278  0.80610574    -0.78930
C2784       C  0.72454410  0.86764932  0.84690790     1.00430
O2785       O  0.71986230  0.84344565  0.83889581    -0.68040
O2786       O  0.66271243  0.79309327  0.84452052    -0.71630
Al2787     Al  0.68374473  0.81388595  0.82585626     1.48980
C2788       C  0.63252012  0.77681269  0.84623002     0.95680
O2789       O  0.62005717  0.83744552  0.84367740    -0.77860
O2790       O  0.67022292  0.88418140  0.80645295    -0.71410
Al2791     Al  0.62150813  0.81780283  0.82490459     1.90120
O2792       O  0.65861557  0.88702651  0.83813990    -0.70480
O2793       O  0.72321840  0.88296476  0.81279796    -0.70330
O2794       O  0.70896245  0.88170974  0.84425539    -0.75990
O2795       O  0.70697779  0.83217694  0.80722503    -0.74200
O2796       O  0.66457149  0.83740977  0.82533594    -1.10330
O2797       O  0.65174667  0.77903750  0.81304650    -0.69520
C2798       C  0.62876490  0.77648353  0.80463992     1.01190
C2799       C  0.63452594  0.86736323  0.84629780     0.97590
Al2800     Al  0.68830309  0.88041953  0.82537100     1.55560
O2801       O  0.61372420  0.78121935  0.83754822    -0.74150
C2802       C  0.72588818  0.86192869  0.80500041     1.01760
C2803       C  0.64054518  0.87339490  0.80431800     0.96640
O2804       O  0.61942441  0.85001329  0.81229115    -0.79470
C2805       C  0.92341885  0.61154621  0.71794152     0.06000
C2806       C  0.94337137  0.62180482  0.73140394    -0.10150
C2807       C  0.96354088  0.60882517  0.73457157     0.03500
C2808       C  0.96346581  0.58613099  0.72415658    -0.08670
C2809       C  0.94411579  0.57661235  0.71075531     0.05990
C2810       C  0.92407837  0.58914574  0.70767365    -0.08090
H2811       H  0.94283399  0.63920735  0.73931205     0.11590
H2812       H  0.97915046  0.57630747  0.72629586     0.09120
H2813       H  0.90942582  0.58192847  0.69708734     0.08960
C2814       C  0.56987697  0.69064768  0.78437781     0.06000
C2815       C  0.54626873  0.68385378  0.77286910    -0.10150
C2816       C  0.52180067  0.65169274  0.76990647     0.03500
C2817       C  0.52082199  0.62666060  0.77910020    -0.08670
C2818       C  0.54459515  0.63356890  0.79048770     0.05990
C2819       C  0.56910147  0.66551456  0.79305722    -0.08090
H2820       H  0.54698398  0.70350146  0.76623361     0.11590
H2821       H  0.50130574  0.60185750  0.77774329     0.09120
H2822       H  0.58697350  0.67094204  0.80218381     0.08960
O2823       O  0.55715011  0.51267967  0.64801624    -0.78930
C2824       C  0.96574225  0.52978738  0.67819032     1.00430
O2825       O  0.99589293  0.54423709  0.67623342    -0.68040
O2826       O  0.55408506  0.54918177  0.67366012    -0.71630
Al2827     Al  0.51855663  0.54311785  0.66031426     1.48980
C2828       C  0.55789242  0.52930739  0.68180497     0.95680
O2829       O  0.99378580  0.94433801  0.67037217    -0.77860
O2830       O  0.95635270  0.94266931  0.64358466    -0.71410
Al2831     Al  0.52367193  0.98375859  0.65539106     1.90120
O2832       O  0.95501663  0.95493540  0.67504449    -0.70480
O2833       O  0.95118477  0.49433106  0.63838835    -0.70330
O2834       O  0.94663858  0.50586375  0.66978070    -0.75990
O2835       O  0.48765031  0.54699662  0.64722749    -0.74200
O2836       O  0.99698971  0.50007042  0.65817332    -1.10330
O2837       O  0.54219464  0.54786154  0.64195571    -0.69520
C2838       C  0.56060593  0.53657981  0.64007561     1.01190
C2839       C  0.96920047  0.93961357  0.67809755     0.97590
Al2840     Al  0.95797160  0.97683681  0.65635909     1.55560
O2841       O  0.54110241  0.49942768  0.67934621    -0.74150
C2842       C  0.96141395  0.52400525  0.63659621     1.01760
C2843       C  0.97784276  0.94032410  0.63610051     0.96640
O2844       O  0.00739990  0.95933717  0.63875517    -0.79470
C2845       C  0.80951663  0.88822720  0.78237051     0.06000
C2846       C  0.81546783  0.87485022  0.76898325    -0.10150
C2847       C  0.84735118  0.88267890  0.76527919     0.03500
C2848       C  0.87304985  0.90459893  0.77502295    -0.08670
C2849       C  0.86694877  0.91811366  0.78821808     0.05990
C2850       C  0.83530932  0.90981048  0.79185953    -0.08090
H2851       H  0.79539507  0.85798191  0.76167876     0.11590
H2852       H  0.89782006  0.91155709  0.77229927     0.09120
H2853       H  0.83067015  0.91974015  0.80230931     0.08960
C2854       C  0.88905414  0.81406193  0.71794237     0.06000
C2855       C  0.91007625  0.83878923  0.70782885    -0.10150
C2856       C  0.91994781  0.87103556  0.71114364     0.03500
C2857       C  0.90853170  0.87872423  0.72464689    -0.08670
C2858       C  0.88738717  0.85412240  0.73492930     0.05990
C2859       C  0.87774092  0.82166102  0.73156561    -0.08090
H2860       H  0.91852555  0.83287249  0.69724057     0.11590
H2861       H  0.91633980  0.90379188  0.72725579     0.09120
H2862       H  0.86166720  0.80256502  0.73948612     0.08960
C2863       C  0.61411864  0.93068989  0.78279728     0.06000
C2864       C  0.63072158  0.95383902  0.77109014    -0.10150
C2865       C  0.62275492  0.97778188  0.76788053     0.03500
C2866       C  0.59864006  0.97868424  0.77701434    -0.08670
C2867       C  0.58210132  0.95538834  0.78863683     0.05990
C2868       C  0.58975460  0.93139448  0.79142854    -0.08090
H2869       H  0.64977359  0.95324665  0.76453495     0.11590
H2870       H  0.59319179  0.99785393  0.77547938     0.09120
H2871       H  0.57756479  0.91395357  0.80074392     0.08960
C2872       C  0.68759304  0.57211602  0.71759707     0.06000
C2873       C  0.66219241  0.57142037  0.70915125    -0.10150
C2874       C  0.63028576  0.54718654  0.71197212     0.03500
C2875       C  0.62365515  0.52357771  0.72334141    -0.08670
C2876       C  0.64887617  0.52451164  0.73238633     0.05990
C2877       C  0.68104073  0.54873347  0.72918574    -0.08090
H2878       H  0.66735479  0.58912661  0.70000744     0.11590
H2879       H  0.59883752  0.50420529  0.72478586     0.09120
H2880       H  0.70085450  0.54941183  0.73567853     0.08960
O2881       O  0.51407575  0.56255514  0.85628131    -0.78930
C2882       C  0.52980393  0.97261307  0.82014426     1.00430
O2883       O  0.54331560  0.00249064  0.82265254    -0.68040
O2884       O  0.54830065  0.55868357  0.82909198    -0.71630
Al2885     Al  0.54264822  0.52321703  0.84231948     1.48980
C2886       C  0.52802837  0.56323638  0.82168944     0.95680
O2887       O  0.94107338  0.99240163  0.82839182    -0.77860
O2888       O  0.93950141  0.95515017  0.85516882    -0.71410
Al2889     Al  0.98107377  0.52795379  0.84350935     1.90120
O2890       O  0.95251954  0.95413723  0.82387998    -0.70480
O2891       O  0.49422363  0.95489582  0.86000066    -0.70330
O2892       O  0.00346871  0.95021731  0.83039199    -0.75990
O2893       O  0.54617274  0.49183779  0.85516185    -0.74200
O2894       O  0.00079898  0.50498086  0.84265986    -1.10330
O2895       O  0.54958479  0.54738937  0.86085265    -0.69520
C2896       C  0.53862090  0.56581358  0.86353409     1.01190
C2897       C  0.93687272  0.96794195  0.82070049     0.97590
Al2898     Al  0.97414687  0.95751302  0.84276503     1.55560
O2899       O  0.49850135  0.54779964  0.82507492    -0.74150
C2900       C  0.52404051  0.96644868  0.86215851     1.01760
C2901       C  0.93684129  0.97641823  0.86265899     0.96640
O2902       O  0.95527956  0.00602676  0.86002580    -0.79470
O2903       O  0.78650815  0.62863716  0.47116452    -0.78930
C2904       C  0.89127496  0.70140594  0.51270420     1.00430
O2905       O  0.88675316  0.67696640  0.50493525    -0.68040
O2906       O  0.82933980  0.62678808  0.51030061    -0.71630
Al2907     Al  0.85104814  0.64714421  0.49170338     1.48980
C2908       C  0.79908838  0.61040555  0.51169554     0.95680
O2909       O  0.78721009  0.67166425  0.50811064    -0.77860
O2910       O  0.83866471  0.71746068  0.47103952    -0.71410
Al2911     Al  0.78908795  0.65132450  0.48968605     1.90120
O2912       O  0.82614030  0.72101823  0.50243094    -0.70480
O2913       O  0.89112160  0.71590213  0.47839673    -0.70330
O2914       O  0.87594667  0.71554602  0.50957362    -0.75990
O2915       O  0.87485722  0.66492861  0.47322970    -0.74200
O2916       O  0.83208273  0.67081175  0.49052728    -1.10330
O2917       O  0.81942298  0.61194484  0.47887352    -0.69520
C2918       C  0.79666006  0.60909879  0.47019019     1.01190
C2919       C  0.80183777  0.70167812  0.51050864     0.97590
Al2920     Al  0.85599771  0.71388131  0.49033476     1.55560
O2921       O  0.78066594  0.61491803  0.50276338    -0.74150
C2922       C  0.89390736  0.69461371  0.47095158     1.01760
C2923       C  0.80904201  0.70674895  0.46865941     0.96640
O2924       O  0.78768048  0.68335612  0.47656062    -0.79470
C2925       C  0.72080327  0.74144632  0.55276835     0.06000
C2926       C  0.74260545  0.74126036  0.54195321    -0.10150
C2927       C  0.75545179  0.72123556  0.54426069     0.03500
C2928       C  0.74677168  0.70136903  0.55744262    -0.08670
C2929       C  0.72461894  0.70076475  0.56837789     0.05990
C2930       C  0.71140738  0.72098026  0.56598667    -0.08090
H2931       H  0.74918193  0.75636213  0.53156544     0.11590
H2932       H  0.75684203  0.68574429  0.55901507     0.09120
H2933       H  0.69450859  0.72119623  0.57432393     0.08960
C2934       C  0.64506350  0.59427057  0.61829745     0.06000
C2935       C  0.65116395  0.61721796  0.60654183    -0.10150
C2936       C  0.68320134  0.64142507  0.60306474     0.03500
C2937       C  0.70876738  0.64279031  0.61198254    -0.08670
C2938       C  0.70247596  0.61973654  0.62362605     0.05990
C2939       C  0.67073050  0.59547810  0.62667606    -0.08090
H2940       H  0.63110140  0.61628720  0.60017253     0.11590
H2941       H  0.73349491  0.66218927  0.61028219     0.09120
H2942       H  0.66588441  0.57824247  0.63602195     0.08960
C2943       C  0.52026156  0.78358136  0.55052243     0.06000
C2944       C  0.99442309  0.75863834  0.54073318    -0.10150
C2945       C  0.96337359  0.75288449  0.54382159     0.03500
C2946       C  0.95875202  0.77060094  0.55553232    -0.08670
C2947       C  0.98524256  0.79408741  0.56439344     0.05990
C2948       C  0.51408812  0.80003442  0.56238216    -0.08090
H2949       H  0.99806320  0.74539084  0.53141587     0.11590
H2950       H  0.93460083  0.76646753  0.55748956     0.09120
H2951       H  0.53402609  0.81869780  0.56914444     0.08960
C2952       C  0.94805378  0.85435641  0.61567727     0.06000
C2953       C  0.95877229  0.84399816  0.60271964    -0.10150
C2954       C  0.94606814  0.81049741  0.60018676     0.03500
C2955       C  0.92331021  0.78822682  0.61075983    -0.08670
C2956       C  0.91303871  0.79864057  0.62357297     0.05990
C2957       C  0.92528830  0.83157160  0.62603724    -0.08090
H2958       H  0.97621488  0.86170872  0.59468215     0.11590
H2959       H  0.91360009  0.76245945  0.60908481     0.09120
H2960       H  0.91748965  0.83951091  0.63617609     0.08960
C2961       C  0.75989419  0.98300007  0.55078328     0.06000
C2962       C  0.75724181  0.50709659  0.54012278    -0.10150
C2963       C  0.77705883  0.53998976  0.54335196     0.03500
C2964       C  0.79664033  0.54995400  0.55668076    -0.08670
C2965       C  0.79713509  0.52729518  0.56691171     0.05990
C2966       C  0.78060432  0.99393112  0.56398458    -0.08090
H2967       H  0.74237093  0.49953584  0.52961128     0.11590
H2968       H  0.81212692  0.57567446  0.55893447     0.09120
H2969       H  0.78066058  0.97650117  0.57204308     0.08960
C2970       C  0.90319208  0.55109893  0.61636791     0.06000
C2971       C  0.87982244  0.53481851  0.60464903    -0.10150
C2972       C  0.85599557  0.54304143  0.60162844     0.03500
C2973       C  0.85545822  0.56718865  0.61095723    -0.08670
C2974       C  0.87894610  0.58348731  0.62261769     0.05990
C2975       C  0.90279545  0.57546188  0.62523239    -0.08090
H2976       H  0.88020021  0.51583399  0.59790231     0.11590
H2977       H  0.83644676  0.57289985  0.60951805     0.09120
H2978       H  0.92045317  0.58746318  0.63452416     0.08960
O2979       O  0.79163974  0.62044872  0.69460155    -0.78930
C2980       C  0.86346208  0.72868107  0.65532072     1.00430
O2981       O  0.84031092  0.72425634  0.66405091    -0.68040
O2982       O  0.78944845  0.66821189  0.65761090    -0.71630
Al2983     Al  0.81074613  0.68732840  0.67648087     1.48980
C2984       C  0.77331077  0.63834461  0.65488001     0.95680
O2985       O  0.83279751  0.62316868  0.65679902    -0.77860
O2986       O  0.88147854  0.67240883  0.69390007    -0.71410
Al2987     Al  0.81359471  0.62449347  0.67570007     1.90120
O2988       O  0.88264725  0.66121330  0.66208862    -0.70480
O2989       O  0.88031149  0.72582205  0.68840960    -0.70330
O2990       O  0.87674267  0.71197310  0.65679370    -0.75990
O2991       O  0.83006312  0.70886574  0.69542907    -0.74200
O2992       O  0.83371291  0.66752375  0.67589205    -1.10330
O2993       O  0.77566157  0.65479517  0.68888348    -0.69520
C2994       C  0.77274740  0.63104224  0.69667981     1.01190
C2995       C  0.86257697  0.63695714  0.65408607     0.97590
Al2996     Al  0.87675205  0.69091303  0.67536127     1.55560
O2997       O  0.77732113  0.61837157  0.66288946    -0.74150
C2998       C  0.85998438  0.72829557  0.69690423     1.01760
C2999       C  0.86988199  0.64263209  0.69615261     0.96640
O3000       O  0.84581211  0.62170634  0.68830662    -0.79470
C3001       C  0.87712976  0.60662137  0.63278362    -0.10400
C3002       C  0.87311555  0.62312649  0.64218019    -0.11960
C3003       C  0.83201516  0.52608910  0.58874995    -0.13560
C3004       C  0.81839057  0.54058861  0.58094341    -0.28740
H3005       H  0.82766180  0.50264690  0.58482059     0.15460
H3006       H  0.82546918  0.56526527  0.58409542     0.16040
C3007       C  0.89147457  0.77523003  0.63468041    -0.10400
C3008       C  0.87636603  0.75415490  0.64404108    -0.11960
C3009       C  0.98029601  0.81180269  0.57743032    -0.13560
C3010       C  0.95374437  0.79657976  0.58645559    -0.28740
H3011       H  0.99933750  0.83627824  0.58024284     0.15460
H3012       H  0.93684657  0.77109318  0.58415513     0.16040
C3013       C  0.74894173  0.62743731  0.64293170    -0.10400
C3014       C  0.72816286  0.62266180  0.63353594    -0.11960
C3015       C  0.71737763  0.67924473  0.58217181    -0.13560
C3016       C  0.68943531  0.66518368  0.59027779    -0.28740
H3017       H  0.73529137  0.67244808  0.58486356     0.15460
H3018       H  0.66997793  0.66922461  0.58674095     0.16040
C3019       C  0.78967915  0.71360248  0.52242083    -0.10400
C3020       C  0.77565799  0.71911115  0.53251285    -0.11960
C3021       C  0.78587935  0.58506879  0.52308073    -0.10400
C3022       C  0.77947577  0.56387340  0.53242222    -0.11960
C3023       C  0.91548013  0.71491947  0.52475972    -0.10400
C3024       C  0.93675522  0.73066779  0.53405262    -0.11960
C3025       C  0.74562123  0.61360650  0.70690550    -0.10400
C3026       C  0.72026035  0.59549060  0.71320210    -0.11960
C3027       C  0.55933657  0.95768859  0.79873048    -0.10400
C3028       C  0.54327689  0.96196641  0.80821177    -0.11960
C3029       C  0.64002027  0.00160127  0.75507528    -0.13560
C3030       C  0.62589331  0.01545650  0.74713937    -0.28740
H3031       H  0.66344125  0.00568708  0.75131267     0.15460
H3032       H  0.66139403  0.49681018  0.74920743     0.16040
C3033       C  0.87857023  0.78109174  0.71357289    -0.10400
C3034       C  0.87060229  0.75560962  0.70719886    -0.11960
C3035       C  0.89274677  0.93914203  0.79868324    -0.10400
C3036       C  0.91309883  0.95435105  0.80845942    -0.11960
C3037       C  0.87825598  0.86307098  0.74986832    -0.13560
C3038       C  0.85365979  0.86902265  0.75088412    -0.28740
H3039       H  0.89332051  0.86635350  0.76002175     0.15460
H3040       H  0.83784841  0.86395896  0.74081179     0.16040
C3041       C  0.60453832  0.54500061  0.70232116    -0.10400
C3042       C  0.58303570  0.54029652  0.69338768    -0.11960
C3043       C  0.94081160  0.89586273  0.70024148    -0.10400
C3044       C  0.95593444  0.91577653  0.69030405    -0.11960
C3045       C  0.94405022  0.53367738  0.62641664    -0.10400
C3046       C  0.92619737  0.54140968  0.62041816    -0.11960
C3047       C  0.61264059  0.57105758  0.62307703    -0.10400
C3048       C  0.58763574  0.55328531  0.62972912    -0.11960
C3049       C  0.96060012  0.88807263  0.61925424    -0.10400
C3050       C  0.96867987  0.91364904  0.62554987    -0.11960
C3051       C  0.53824552  0.58749330  0.80972290    -0.10400
C3052       C  0.54243663  0.60824210  0.80043541    -0.11960
C3053       C  0.88627981  0.63265204  0.70688467    -0.10400
C3054       C  0.90297349  0.62433594  0.71368421    -0.11960
C3055       C  0.95329763  0.54190876  0.68982392    -0.10400
C3056       C  0.94702058  0.55603188  0.69952646    -0.11960
C3057       C  0.98464209  0.61694192  0.74861331    -0.13560
C3058       C  0.99845769  0.64534845  0.75635227    -0.28740
H3059       H  0.99156492  0.59933203  0.75176748     0.15460
H3060       H  0.99431232  0.66447993  0.75237429     0.16040
C3061       C  0.77715759  0.87873914  0.78741179    -0.10400
C3062       C  0.75249800  0.87167206  0.79436328    -0.11960
C3063       C  0.62358734  0.90778648  0.78724719    -0.10400
C3064       C  0.63093967  0.89017604  0.79376852    -0.11960
C3065       C  0.61160078  0.74909387  0.79452275    -0.10400
C3066       C  0.59348847  0.72341836  0.78846538    -0.11960
C3067       C  0.54250095  0.93368967  0.87982874    -0.10400
C3068       C  0.53429145  0.95031379  0.87289544    -0.11960
C3069       C  0.62209228  0.87874454  0.85842410    -0.10400
C3070       C  0.60764185  0.88445388  0.86825837    -0.11960
C3071       C  0.54726857  0.85692618  0.91820227    -0.13560
C3072       C  0.52007296  0.82796457  0.92015143    -0.28740
H3073       H  0.56577468  0.86689884  0.92723056     0.15460
H3074       H  0.50179007  0.81904171  0.91095749     0.16040
C3075       C  0.91048284  0.96696809  0.87323677    -0.10400
C3076       C  0.88553066  0.95999025  0.87972586    -0.11960
C3077       C  0.77028783  0.89699498  0.86799228    -0.10400
C3078       C  0.74914299  0.88100786  0.85872142    -0.11960
C3079       C  0.78070289  0.96368324  0.91916281    -0.13560
C3080       C  0.80884167  0.97812081  0.91126652    -0.28740
H3081       H  0.76284481  0.93873475  0.91637874     0.15460
H3082       H  0.82828908  0.00180263  0.91493332     0.16040
C3083       C  0.55595546  0.59254319  0.87410703    -0.10400
C3084       C  0.57236531  0.61798466  0.88079770    -0.11960
C3085       C  0.61967758  0.75185394  0.85776468    -0.10400
C3086       C  0.61315493  0.73096952  0.86727670    -0.11960
C3087       C  0.65116683  0.70872764  0.91625275    -0.13560
C3088       C  0.66579962  0.69495667  0.92379860    -0.28740
H3089       H  0.65736317  0.73310827  0.91948486     0.15460
H3090       H  0.66222326  0.67189910  0.91970420     0.16040
C3091       C  0.70717151  0.92350069  0.97803265    -0.10400
C3092       C  0.72159257  0.94421798  0.96840115    -0.11960
C3093       C  0.70672737  0.79393062  0.97569994    -0.10400
C3094       C  0.71159021  0.77736837  0.96675338    -0.11960
C3095       C  0.56028655  0.79221162  0.96570468    -0.10400
C3096       C  0.58088303  0.79730051  0.97526616    -0.11960
C3097       C  0.87736259  0.62929380  0.14301349    -0.10400
C3098       C  0.89307893  0.62379376  0.13384055    -0.11960
C3099       C  0.55154733  0.76148252  0.04630659    -0.10400
C3100       C  0.57644585  0.77990490  0.03974677    -0.11960
C3101       C  0.97348444  0.66469425  0.09020159    -0.13560
C3102       C  0.95978703  0.67922680  0.08247220    -0.28740
H3103       H  0.99654460  0.66809974  0.08625384     0.15460
H3104       H  0.93533416  0.67295953  0.08558488     0.16040
C3105       C  0.74810064  0.62906272  0.14448022    -0.10400
C3106       C  0.72680580  0.61476388  0.13503395    -0.11960
C3107       C  0.70814811  0.94863202  0.04735529    -0.10400
C3108       C  0.69947728  0.92268221  0.04132415    -0.11960
C3109       C  0.70159729  0.55580480  0.08535750    -0.13560
C3110       C  0.68844057  0.52657735  0.07840756    -0.28740
H3111       H  0.72535447  0.57481173  0.08163620     0.15460
H3112       H  0.66616671  0.50660928  0.08309456     0.16040
C3113       C  0.87723518  0.75608593  0.14466941    -0.10400
C3114       C  0.88283365  0.77640831  0.13492840    -0.11960
C3115       C  0.73425033  0.79133348  0.04515675    -0.10400
C3116       C  0.71649359  0.79886486  0.03886749    -0.11960
C3117       C  0.82867916  0.80950996  0.07766060    -0.13560
C3118       C  0.84315463  0.79592819  0.08554552    -0.28740
H3119       H  0.83230096  0.83274611  0.08148130     0.15460
H3120       H  0.83681496  0.77137415  0.08257123     0.16040
C3121       C  0.78633584  0.72871910  0.03383694    -0.10400
C3122       C  0.79117290  0.71271811  0.02451565    -0.11960
C3123       C  0.78543889  0.58319957  0.02512274    -0.10400
C3124       C  0.76899093  0.56249720  0.03452746    -0.11960
C3125       C  0.91692295  0.71167390  0.02408888    -0.10400
C3126       C  0.93773339  0.71792132  0.03365157    -0.11960
C3127       C  0.91849744  0.71940787  0.96031231    -0.10400
C3128       C  0.94384287  0.73647565  0.95369544    -0.11960
C3129       C  0.79497587  0.57876658  0.96099530    -0.10400
C3130       C  0.78705071  0.55328912  0.95456128    -0.11960
C3131       C  0.77827659  0.70365309  0.96110747    -0.10400
C3132       C  0.76067212  0.71174954  0.95517369    -0.11960
C3133       C  0.90556616  0.78344759  0.21435746    -0.10400
C3134       C  0.88902704  0.75730572  0.20833565    -0.11960
C3135       C  0.55099035  0.94839831  0.30178055    -0.10400
C3136       C  0.54402293  0.96259932  0.31114631    -0.11960
C3137       C  0.50058427  0.86076879  0.24453229    -0.13560
C3138       C  0.51466504  0.88912355  0.25229949    -0.28740
H3139       H  0.99616524  0.90152184  0.24976927     0.15460
H3140       H  0.50803880  0.90697238  0.24919266     0.16040
C3141       C  0.72129053  0.62628692  0.21410534    -0.10400
C3142       C  0.74668266  0.63378752  0.20784300    -0.11960
C3143       C  0.54273680  0.58723624  0.31241284    -0.10400
C3144       C  0.55668333  0.60753255  0.30251925    -0.11960
C3145       C  0.64310770  0.64321049  0.24547501    -0.13560
C3146       C  0.61387635  0.63011962  0.25238845    -0.28740
H3147       H  0.66307173  0.66560762  0.25012284     0.15460
H3148       H  0.59488899  0.60620744  0.24878380     0.16040
C3149       C  0.94405090  0.89528895  0.19893566    -0.10400
C3150       C  0.94933612  0.91565135  0.18926361    -0.11960
C3151       C  0.60639928  0.56390110  0.20108214    -0.10400
C3152       C  0.58549315  0.54805557  0.19164091    -0.11960
C3153       C  0.92483944  0.88875258  0.11930012    -0.10400
C3154       C  0.94175552  0.91468817  0.12553592    -0.11960
C3155       C  0.58726536  0.53865849  0.12749857    -0.10400
C3156       C  0.61265466  0.54692169  0.12093874    -0.11960
C3157       C  0.96059773  0.55132760  0.12875330    -0.10400
C3158       C  0.95341956  0.56930755  0.12242349    -0.11960
C3159       C  0.86851711  0.61526916  0.20657506    -0.10400
C3160       C  0.87565714  0.59725422  0.21286444    -0.11960
C3161       C  0.95560278  0.54176966  0.19247097    -0.10400
C3162       C  0.93946864  0.54647793  0.20173459    -0.11960
C3163       C  0.91326108  0.95849465  0.30788706    -0.10400
C3164       C  0.89268008  0.95286943  0.29823662    -0.11960
C3165       C  0.87291021  0.48978709  0.25328264    -0.13560
C3166       C  0.85853734  0.50328324  0.24524974    -0.28740
H3167       H  0.89769952  0.49693557  0.25037423     0.15460
H3168       H  0.83497533  0.49894632  0.24891503     0.16040
C3169       C  0.77751376  0.90469341  0.28653324    -0.10400
C3170       C  0.75209569  0.88804120  0.29312091    -0.11960
C3171       C  0.61126856  0.87031594  0.29370619    -0.10400
C3172       C  0.59472158  0.87941444  0.28737489    -0.11960
C3173       C  0.62057471  0.72046271  0.28606770    -0.10400
C3174       C  0.62839234  0.74619199  0.29217980    -0.11960
C3175       C  0.56691960  0.95683074  0.37909629    -0.10400
C3176       C  0.54921866  0.96514745  0.37338404    -0.11960
C3177       C  0.61769838  0.89273199  0.36692136    -0.10400
C3178       C  0.62266376  0.87676813  0.35758254    -0.11960
C3179       C  0.76138167  0.55526154  0.45446011    -0.10400
C3180       C  0.77951129  0.58117511  0.46034376    -0.11960
C3181       C  0.65995349  0.97155215  0.41163687    -0.13560
C3182       C  0.67368980  0.95729963  0.41960221    -0.28740
H3183       H  0.66432499  0.99510698  0.41537035     0.15460
H3184       H  0.66662050  0.93252571  0.41665983     0.16040
C3185       C  0.94608457  0.71067942  0.45457477    -0.10400
C3186       C  0.92096576  0.70404466  0.46081234    -0.11960
C3187       C  0.53167364  0.58847433  0.37627283    -0.10400
C3188       C  0.54032457  0.61439990  0.38231856    -0.11960
C3189       C  0.60747647  0.72679625  0.36556369    -0.10400
C3190       C  0.62136795  0.74726188  0.35575487    -0.11960
C3191       C  0.52356887  0.69256520  0.42381355    -0.13560
C3192       C  0.55169810  0.70655868  0.41590651    -0.28740
H3193       H  0.50375845  0.66924941  0.41995365     0.15460
H3194       H  0.57009129  0.73120743  0.41887120     0.16040
C3195       C  0.79030233  0.73998744  0.45168879    -0.10400
C3196       C  0.79953875  0.72357348  0.45797799    -0.11960
C3197       C  0.88405265  0.92869828  0.37826645    -0.10400
C3198       C  0.90942053  0.94662824  0.37195195    -0.11960
C3199       C  0.76881598  0.87760957  0.36669638    -0.10400
C3200       C  0.74816003  0.87312923  0.35727664    -0.11960
C3201       C  0.80599618  0.83411148  0.41019434    -0.13560
C3202       C  0.77779020  0.81973329  0.41806821    -0.28740
H3203       H  0.82555716  0.83046546  0.41401186     0.15460
H3204       H  0.75961398  0.82604620  0.41515696     0.16040
C3205       C  0.58349816  0.78926953  0.47700009    -0.10400
C3206       C  0.56248999  0.77322561  0.46762163    -0.11960
C3207       C  0.71745568  0.93832051  0.46799489    -0.10400
C3208       C  0.71246519  0.91797820  0.47766997    -0.11960
C3209       C  0.70840444  0.78868328  0.47859540    -0.10400
C3210       C  0.72183380  0.78249735  0.46845393    -0.11960
C3211       C  0.72209127  0.92287393  0.54111350    -0.10400
C3212       C  0.73928134  0.94903581  0.54712280    -0.11960
C3213       C  0.57833737  0.79973619  0.54042106    -0.10400
C3214       C  0.55280368  0.79254328  0.54637795    -0.11960
C3215       C  0.70783020  0.76212909  0.54936443    -0.10400
C3216       C  0.69956625  0.77935432  0.54306855    -0.11960
loop_ 
_geom_bond_atom_site_label_1 
_geom_bond_atom_site_label_2 
_geom_bond_distance 
_geom_bond_site_symmetry_2 
_ccdc_geom_bond_type 
O1           C16   1.266       .  A
O1           Al9   1.934       .  S
C2           O12   1.267       .  A
C2            O3   1.256       .  A
C2          C793   1.432       .  S
O3           Al5   1.876       .  S
O4            C6   1.263       .  A
O4           Al5   1.932       .  S
Al5          O13   1.930       .  S
Al5          O15   1.888       .  S
Al5          O14   1.782       .  S
C6           O19   1.256       .  A
C6          C797   1.430       .  S
O7           C17   1.264       .  A
O7           Al9   1.936       .  S
O8           C21   1.267       .  A
O8          Al18   1.941       .  S
Al9          O22   1.886       .  S
Al9          O19   1.883       .  S
Al9          O14   1.782       .  S
O10          C17   1.253       .  A
O10         Al18   1.877       .  S
O11          C20   1.257       .  A
O11         Al18   1.893       .  S
O12         Al18   1.941       .  S
O13          C20   1.263       .  A
O14         Al18   1.781       .  S
O15          C16   1.259       .  A
C16         C804   1.434       .  S
C17         C796   1.434       .  S
C20         C801   1.438       .  S
C21          O22   1.257       .  A
C21         C799   1.441       .  S
C23         C785   1.440       .  S
C23          C24   1.405       .  A
C23          C28   1.398       .  A
C24          C25   1.409       .  A
C24          H29   1.084       .  S
C25          C26   1.415       .  A
C25         C789   1.498       .  S
C26          C27   1.402       .  A
C26          H30   1.082       .  S
C27         C787   1.443       .  S
C27          C28   1.395       .  A
C28          H31   1.085       .  S
C32         C783   1.446       .  S
C32          C33   1.401       .  A
C32          C37   1.414       .  A
C33          C34   1.394       .  A
C33          H38   1.085       .  S
C34         C798   1.436       .  S
C34          C35   1.393       .  A
C35          C36   1.402       .  A
C35          H39   1.085       .  S
C36          C37   1.416       .  A
C36         C790   1.487       .  S
C37          H40   1.083       .  S
C41         C776   1.438       .  S
C41          C42   1.405       .  A
C41          C46   1.397       .  A
C42          C43   1.408       .  A
C42          H47   1.084       .  S
C43          C44   1.414       .  A
C43         C780   1.493       .  S
C44          C45   1.403       .  A
C44          H48   1.083       .  S
C45         C777   1.442       .  S
C45          C46   1.394       .  A
C46          H49   1.085       .  S
C50         C773   1.440       .  S
C50          C55   1.405       .  A
C50        C1659   1.398       .  A
C51          C52   1.394       .  A
C51        C1658   1.400   1_455  A
C51        H1664   1.085   1_455  S
C52         C794   1.438       .  S
C52          C53   1.395       .  A
C53          C54   1.405       .  A
C53          H57   1.085       .  S
C54        C1663   1.416   1_455  A
C54         C779   1.489       .  S
C55        C1662   1.409       .  A
C55          H58   1.084       .  S
H56        C1659   1.085       .  S
C59         C767   1.442       .  S
C59          C64   1.411       .  A
C59         C864   1.400   1_545  A
C60          C61   1.394       .  A
C60         C863   1.398       .  A
C60          H65   1.085       .  S
C61         C795   1.440       .  S
C61          C62   1.400       .  A
C62          C63   1.412       .  A
C62          H66   1.083       .  S
C63         C868   1.407       .  A
C63         C770   1.490       .  S
C64         C867   1.414   1_545  A
C64          H67   1.082       .  S
C68         C763   1.440       .  S
C68          C69   1.408       .  A
C68          C73   1.400       .  A
C69          C70   1.413       .  A
C69          H74   1.083       .  S
C70          C71   1.402       .  A
C70         C769   1.483       .  S
C71          C72   1.394       .  A
C71          H75   1.085       .  S
C72         C765   1.435       .  S
C72          C73   1.394       .  A
C73          H76   1.085       .  S
O77          C92   1.268       .  A
O77         Al85   1.944       .  S
C78          O88   1.267       .  A
C78          O79   1.254       .  A
C78         C778   1.435       .  S
O79         Al81   1.876       .  S
O80          C82   1.263       .  A
O80         Al81   1.931       .  S
Al81         O89   1.930       .  S
Al81         O91   1.887       .  S
Al81         O90   1.782       .  S
C82          O95   1.256       .  A
C82         C766   1.429       .  S
O83          C93   1.266       .  A
O83         Al85   1.948       .  S
O84          C97   1.267       .  A
O84         Al94   1.942       .  S
Al85         O98   1.889       .  S
Al85         O95   1.880       .  S
Al85         O90   1.780       .  S
O86          C93   1.254       .  A
O86         Al94   1.875       .  S
O87          C96   1.256       .  A
O87         Al94   1.884       .  S
O88         Al94   1.945       .  S
O89          C96   1.264       .  A
O90         Al94   1.779       .  S
O91          C92   1.257       .  A
C92         C759   1.439       .  S
C93         C788   1.436       .  S
C96         C762   1.433       .  S
C97          O98   1.258       .  A
C97         C758   1.440       .  S
C99         C757   1.445       .  S
C99         C100   1.409       .  A
C99         C104   1.400       .  A
C100        C101   1.410       .  A
C100        H105   1.084       .  S
C101        C102   1.402       .  A
C101       C1557   1.478       .  S
C102        C103   1.399       .  A
C102        H106   1.085       .  S
C103        C752   1.439       .  S
C103        C104   1.397       .  A
C104        H107   1.085       .  S
C108        C748   1.444       .  S
C108        C109   1.400       .  A
C108        C113   1.413       .  A
C109        C110   1.393       .  A
C109        H114   1.085       .  S
C110        C750   1.433       .  S
C110        C111   1.392       .  A
C111        C112   1.401       .  A
C111        H115   1.085       .  S
C112        C113   1.415       .  A
C112        C754   1.484       .  S
C113        H116   1.083       .  S
O117        C132   1.256       .  A
O117       Al125   1.882       .  S
C118        O128   1.254       .  A
C118        O119   1.265       .  A
C118        C740   1.434       .  S
O119       Al925   1.942   1_545  S
O120        C122   1.255       .  A
O120      Al1729   1.877       .  S
Al121       O923   1.940       .  S
Al121      O1728   1.875       .  S
Al121       O933   1.885       .  S
Al121      O1739   1.937   1_455  S
Al121      O2542   1.778   1_455  S
C122        O135   1.267       .  A
C122        C738   1.435       .  S
O123        C133   1.256       .  A
O123       Al929   1.881   1_545  S
O124        C137   1.258       .  A
O124      Al1742   1.882       .  S
Al125       O135   1.946       .  S
Al125       O927   1.874       .  S
Al125       O942   1.943       .  S
Al125       O934   1.780       .  S
O126        C133   1.262       .  A
O126      Al1742   1.928       .  S
O127        C136   1.268       .  A
O127       Al134   1.943       .  S
O128       Al134   1.879       .  S
O129        C136   1.256   1_565  A
O129       Al925   1.881       .  S
O130      Al2533   1.778       .  S
O130       Al929   1.779       .  S
O130      Al1742   1.782   1_565  S
O131        C132   1.266       .  A
O131      Al1729   1.939       .  S
C132        C742   1.434       .  S
C133        C749   1.428       .  S
Al134      O1732   1.886       .  S
Al134      O1734   1.942   1_455  S
Al134      O1738   1.781   1_455  S
C136        C743   1.436       .  S
C137        O138   1.268       .  A
C137        C745   1.432       .  S
O138       Al929   1.938   1_545  S
C139        C140   1.407       .  A
C139        C144   1.403       .  A
C139        C734   1.474       .  S
C140        C141   1.406       .  A
C140        H145   1.084       .  S
C141        C761   1.439       .  S
C141        C142   1.399       .  A
C142        C143   1.395       .  A
C142        H146   1.085       .  S
C143        C732   1.437       .  S
C143        C144   1.399       .  A
C144        H147   1.084       .  S
C148        C729   1.441       .  S
C148        C149   1.398       .  A
C148        C153   1.405       .  A
C149        C150   1.396       .  A
C149        H154   1.085       .  S
C150        C739   1.441       .  S
C150        C151   1.401       .  A
C151        C152   1.411       .  A
C151        H155   1.082       .  S
C152        C153   1.408       .  A
C152        C733   1.490       .  S
C153        H156   1.084       .  S
C157        C760   1.444       .  S
C157        C158   1.413       .  A
C157        C162   1.400       .  A
C158        C159   1.415       .  A
C158        H163   1.083       .  S
C159        C160   1.404       .  A
C159        C726   1.487       .  S
C160        C161   1.394       .  A
C160        H164   1.085       .  S
C161        C723   1.437       .  S
C161        C162   1.393       .  A
C162        H165   1.085       .  S
C166        C721   1.443       .  S
C166        C167   1.398       .  A
C166        C171   1.408       .  A
C167        C168   1.395       .  A
C167        H172   1.085       .  S
C168        C737   1.441       .  S
C168        C169   1.401       .  A
C169        C170   1.413       .  A
C169        H173   1.083       .  S
C170        C171   1.411       .  A
C170       C2333   1.498       .  S
C171        H174   1.084       .  S
O175        C190   1.257       .  A
O175       Al183   1.886       .  S
C176        O186   1.255       .  A
C176        O177   1.265       .  A
C176        C731   1.430       .  S
O177      Al1787   1.936   1_455  S
O178        C984   1.253   1_545  A
O178       Al179   1.878       .  S
Al179       O187   1.886       .  S
Al179      O1785   1.939       .  S
Al179       O993   1.935   1_545  S
Al179       O992   1.780       .  S
C180        O193   1.265       .  A
C180        O982   1.255       .  A
C180        C751   1.433       .  S
O181       C1799   1.255       .  A
O181       Al183   1.877       .  S
O182        C195   1.256       .  A
O182       Al996   1.890       .  S
Al183       O193   1.938       .  S
Al183      O1804   1.933       .  S
Al183       O188   1.780       .  S
O184        C191   1.265       .  A
O184       Al996   1.936       .  S
O185        C194   1.266       .  A
O185       Al192   1.935       .  S
O186       Al192   1.876       .  S
O187       C1802   1.255       .  A
O188       Al983   1.782       .  S
O188      Al2604   1.782       .  S
O189        C190   1.265       .  A
O189       Al983   1.931       .  S
C190        C786   1.434       .  S
C191       O1789   1.257       .  A
C191        C724   1.430       .  S
Al192       O986   1.884       .  S
Al192       O988   1.936   1_545  S
Al192      O2600   1.779   1_445  S
C194       O1795   1.255   1_455  A
C194        C775   1.432       .  S
C195        O196   1.264       .  A
C195        C764   1.435       .  S
O196      Al1791   1.928   1_455  S
O197        C212   1.265       .  A
O197       Al205   1.929       .  S
C198        O208   1.265       .  A
C198        O199   1.256       .  A
C198        C711   1.434       .  S
O199       Al201   1.880   1_554  S
O200        C202   1.264       .  A
O200       Al201   1.936   1_554  S
Al201       O209   1.932       .  S
Al201       O211   1.889       .  S
Al201       O210   1.782       .  S
C202        O215   1.255       .  A
C202        C710   1.432       .  S
O203        C213   1.264       .  A
O203       Al205   1.934   1_554  S
O204        C217   1.266       .  A
O204       Al214   1.935       .  S
Al205       O218   1.890       .  S
Al205       O215   1.879   1_556  S
Al205       O210   1.782       .  S
O206        C213   1.256       .  A
O206       Al214   1.878   1_554  S
O207        C216   1.258       .  A
O207       Al214   1.889       .  S
O208       Al214   1.938   1_554  S
O209        C216   1.265       .  A
O210       Al214   1.781       .  S
O211        C212   1.257       .  A
C212        C719   1.435       .  S
C213        C713   1.431       .  S
C216        C717   1.436       .  S
C217        O218   1.258       .  A
C217        C715   1.439       .  S
C219        C703   1.443       .  S
C219        C220   1.400       .  A
C219        C224   1.411       .  A
C220        C221   1.394       .  A
C220        H225   1.085       .  S
C221        C709   1.438       .  S
C221        C222   1.395       .  A
C222        C223   1.404       .  A
C222        H226   1.085       .  S
C223        C224   1.414       .  A
C223        C705   1.487       .  S
C224        H227   1.083       .  S
C228        C741   1.440       .  S
C228        C229   1.406       .  A
C228        C233   1.397       .  A
C229        C230   1.409       .  A
C229        H234   1.084       .  S
C230        C231   1.413       .  A
C230        C706   1.495       .  S
C231        C232   1.401       .  A
C231        H235   1.083       .  S
C232        C702   1.440       .  S
C232        C233   1.394       .  A
C233        H236   1.085       .  S
C237        C238   1.405       .  A
C237       C1046   1.417   1_545  A
C237        C698   1.491       .  S
C238        C239   1.395       .  A
C238        H243   1.085       .  S
C239        C712   1.440       .  S
C239        C240   1.394       .  A
C240       C1045   1.401   1_545  A
C240        H244   1.085   1_545  S
C241        C695   1.437       .  S
C241        C242   1.404       .  A
C241       C1044   1.397       .  A
C242       C1041   1.408       .  A
C242        H245   1.084       .  S
C246        C744   1.442       .  S
C246        C247   1.408       .  A
C246        C251   1.398       .  A
C247        C248   1.410       .  A
C247        H252   1.084       .  S
C248        C249   1.413       .  A
C248        C697   1.496       .  S
C249        C250   1.401       .  A
C249        H253   1.083       .  S
C250        C694   1.441       .  S
C250        C251   1.394       .  A
C251        H254   1.085       .  S
C255        C687   1.436       .  S
C255        C260   1.402       .  A
C255       C1864   1.398   1_455  A
C256        C257   1.394       .  A
C256       C1863   1.400       .  A
C256        H261   1.085       .  S
C257        C714   1.437       .  S
C257        C258   1.395       .  A
C258        C259   1.404       .  A
C258        H262   1.085       .  S
C259       C1868   1.414       .  A
C259        C690   1.485       .  S
C260       C1867   1.405   1_455  A
C260        H263   1.084       .  S
C264        C746   1.438       .  S
C264        C265   1.405       .  A
C264        C269   1.397       .  A
C265        C266   1.409       .  A
C265        H270   1.084       .  S
C266        C267   1.412       .  A
C266        C689   1.493       .  S
C267        C268   1.400       .  A
C267        H271   1.083       .  S
C268        C686   1.438       .  S
C268        C269   1.393       .  A
C269        H272   1.085       .  S
O273        C288   1.268       .  A
O273       Al281   1.944       .  S
C274        O284   1.267       .  A
C274        O275   1.255       .  A
C274        C693   1.435       .  S
O275       Al277   1.879       .  S
O276        C278   1.265       .  A
O276       Al277   1.938       .  S
Al277       O285   1.936       .  S
Al277       O287   1.887       .  S
Al277       O286   1.781       .  S
C278        O291   1.254       .  A
C278        C685   1.431       .  S
O279        C289   1.267       .  A
O279       Al281   1.945       .  S
O280        C293   1.267       .  A
O280       Al290   1.943       .  S
Al281       O294   1.883       .  S
Al281       O291   1.875       .  S
Al281       O286   1.779       .  S
O282        C289   1.254       .  A
O282       Al290   1.874       .  S
O283        C292   1.257       .  A
O283       Al290   1.885       .  S
O284       Al290   1.944       .  S
O285        C292   1.266       .  A
O286       Al290   1.779       .  S
O287        C288   1.257       .  A
C288        C747   1.440       .  S
C289        C701   1.434       .  S
C292        C730   1.435       .  S
C293        O294   1.256       .  A
C293        C722   1.438       .  S
O295        C310   1.257       .  A
O295       Al303   1.886       .  S
C296        O306   1.256       .  A
C296        O297   1.262       .  A
C296        C679   1.427       .  S
O297       Al299   1.925   1_556  S
O298        C300   1.256       .  A
O298       Al299   1.879   1_556  S
Al299       O307   1.883       .  S
Al299       O309   1.922       .  S
Al299       O308   1.781       .  S
C300        O313   1.266       .  A
C300        C684   1.434       .  S
O301        C311   1.255       .  A
O301       Al303   1.877   1_556  S
O302        C315   1.257       .  A
O302       Al312   1.889       .  S
Al303       O316   1.937       .  S
Al303       O313   1.942   1_554  S
Al303       O308   1.779       .  S
O304        C311   1.263       .  A
O304       Al312   1.932   1_556  S
O305        C314   1.265       .  A
O305       Al312   1.930       .  S
O306       Al312   1.881   1_556  S
O307        C314   1.257       .  A
O308       Al312   1.782       .  S
O309        C310   1.262       .  A
C310        C688   1.430       .  S
C311        C681   1.430       .  S
C314        C696   1.431       .  S
C315        O316   1.266       .  A
C315        C704   1.438       .  S
C317        C672   1.437       .  S
C317        C318   1.406       .  A
C317        C322   1.397       .  A
C318        C319   1.408       .  A
C318        H323   1.084       .  S
C319        C320   1.411       .  A
C319        C675   1.491       .  S
C320        C321   1.398       .  A
C320        H324   1.083       .  S
C321        C674   1.436       .  S
C321        C322   1.393       .  A
C322        H325   1.085       .  S
C326        C720   1.440       .  S
C326        C327   1.400       .  A
C326        C331   1.409       .  A
C327        C328   1.394       .  A
C327        H332   1.085       .  S
C328        C682   1.436       .  S
C328        C329   1.394       .  A
C329        C330   1.403       .  A
C329        H333   1.085       .  S
C330        C331   1.412       .  A
C330        C676   1.483       .  S
C331        H334   1.083       .  S
C335        C664   1.437       .  S
C335        C336   1.404       .  A
C335        C340   1.397       .  A
C336        C337   1.408       .  A
C336        H341   1.084       .  S
C337        C338   1.414       .  A
C337        C668   1.494       .  S
C338        C339   1.401       .  A
C338        H342   1.082       .  S
C339        C665   1.440       .  S
C339        C340   1.394       .  A
C340        H343   1.085       .  S
C344        C718   1.441       .  S
C344        C349   1.409       .  A
C344       C1149   1.401   1_545  A
C345        C346   1.392       .  A
C345       C1148   1.399       .  A
C345       H1154   1.085       .  S
C346        C680   1.433       .  S
C346        C347   1.393       .  A
C347        C348   1.401       .  A
C347        H351   1.085       .  S
C348       C1153   1.414       .  A
C348        C667   1.482       .  S
C349       C1152   1.413   1_545  A
C349        H352   1.083       .  S
H350       C1149   1.085   1_545  S
C353        C655   1.440       .  S
C353        C354   1.406       .  A
C353        C358   1.397       .  A
C354        C355   1.410       .  A
C354        H359   1.084       .  S
C355        C356   1.414       .  A
C355        C659   1.496       .  S
C356        C357   1.401       .  A
C356        H360   1.081       .  S
C357        C658   1.440       .  S
C357        C358   1.394       .  A
C358        H361   1.085       .  S
C362        C716   1.444       .  S
C362        C367   1.410       .  A
C362       C1971   1.401       .  A
C363        C364   1.397       .  A
C363       C1970   1.401   1_455  A
C363        H368   1.085       .  S
C364        C683   1.440       .  S
C364        C365   1.399       .  A
C365        C366   1.403       .  A
C365        H369   1.085       .  S
C366       C1975   1.408   1_455  A
C366        C660   1.477       .  S
C367       C1974   1.411       .  A
C367        H370   1.083       .  S
O371        C386   1.257       .  A
O371       Al379   1.881       .  S
C372        O382   1.254       .  A
C372        O373   1.266       .  A
C372        C666   1.433       .  S
O373       Al375   1.943       .  S
O374        C376   1.254       .  A
O374       Al375   1.877       .  S
Al375       O383   1.884       .  S
Al375       O385   1.940       .  S
Al375       O384   1.779       .  S
C376        O389   1.264       .  A
C376        C673   1.429       .  S
O377        C387   1.256       .  A
O377       Al379   1.877       .  S
O378        C391   1.256       .  A
O378       Al388   1.883       .  S
Al379       O392   1.932       .  S
Al379       O389   1.934       .  S
Al379       O384   1.781       .  S
O380        C387   1.267       .  A
O380       Al388   1.945       .  S
O381        C390   1.267       .  A
O381       Al388   1.943       .  S
O382       Al388   1.872       .  S
O383        C390   1.255       .  A
O384       Al388   1.777       .  S
O385        C386   1.267       .  A
C386        C653   1.434       .  S
C387        C657   1.433       .  S
C390        C650   1.439       .  S
C391        O392   1.264       .  A
C391        C652   1.431       .  S
C393        C642   1.441       .  S
C393        C394   1.409       .  A
C393        C398   1.400       .  A
C394        C395   1.413       .  A
C394        H399   1.083       .  S
C395        C396   1.405       .  A
C395        C645   1.486       .  S
C396        C397   1.396       .  A
C396        H400   1.085       .  S
C397        C644   1.438       .  S
C397        C398   1.394       .  A
C398        H401   1.085       .  S
C402        C654   1.439       .  S
C402        C403   1.407       .  A
C402        C407   1.398       .  A
C403        C404   1.409       .  A
C403        H408   1.084       .  S
C404        C405   1.412       .  A
C404       C2254   1.494       .  S
C405        C406   1.398       .  A
C405        H409   1.083       .  S
C406        C640   1.438       .  S
C406        C407   1.393       .  A
C407        H410   1.085       .  S
O411        C426   1.268       .  A
O411      Al1223   1.940   1_545  S
C412        O422   1.264       .  A
C412        O413   1.256       .  A
C412        C643   1.432       .  S
O413      Al2023   1.879       .  S
O414        C416   1.264       .  A
O414       Al415   1.939       .  S
Al415       O423   1.937   1_455  S
Al415       O425   1.886       .  S
Al415      O2021   1.880   1_455  S
Al415      O2032   1.781       .  S
C416        O429   1.254       .  A
C416        C630   1.432       .  S
O417        C427   1.266       .  A
O417      Al2027   1.941       .  S
O418        C431   1.263       .  A
O418       Al428   1.927       .  S
Al419      O1215   1.936       .  S
Al419      O2025   1.941   1_455  S
Al419      O2040   1.881       .  S
Al419      O1233   1.880       .  S
Al419      O2836   1.778   1_455  S
O420        C427   1.255       .  A
O420       Al428   1.873       .  S
O421        C430   1.257   1_565  A
O421      Al1232   1.889       .  S
O422      Al1232   1.935   1_545  S
O423       C2038   1.266       .  A
O424      Al2023   1.782       .  S
O424      Al2831   1.781   1_545  S
O424      Al1232   1.783   1_545  S
O425        C426   1.258       .  A
C426        C636   1.437       .  S
C427        C632   1.432       .  S
Al428      O1225   1.886       .  S
Al428      O1226   1.928       .  S
Al428      O1228   1.780       .  S
O429      Al1223   1.876   1_545  S
C430       O2031   1.265       .  A
C430        C633   1.436       .  S
C431        O432   1.254       .  A
C431        C638   1.430       .  S
O432      Al2027   1.879       .  S
C433        C649   1.444       .  S
C433        C434   1.413       .  A
C433        C438   1.399       .  A
C434        C435   1.415       .  A
C434        H439   1.083       .  S
C435        C436   1.403       .  A
C435        C626   1.486       .  S
C436        C437   1.394       .  A
C436        H440   1.085       .  S
C437        C623   1.435       .  S
C437        C438   1.392       .  A
C438        H441   1.085       .  S
C442        C621   1.438       .  S
C442        C443   1.396       .  A
C442        C447   1.407       .  A
C443        C444   1.392       .  A
C443        H448   1.085       .  S
C444        C631   1.439       .  S
C444        C445   1.401       .  A
C445        C446   1.414       .  A
C445        H449   1.082       .  S
C446        C447   1.410       .  A
C446        C625   1.497       .  S
C447        H450   1.084       .  S
C451        C651   1.437       .  S
C451        C452   1.405       .  A
C451        C456   1.399       .  A
C452        C453   1.407       .  A
C452        H457   1.084       .  S
C453        C454   1.413       .  A
C453        C617   1.493       .  S
C454        C455   1.400       .  A
C454        H458   1.083       .  S
C455        C615   1.440       .  S
C455        C456   1.395       .  A
C456        H459   1.085       .  S
C460        C614   1.437       .  S
C460        C461   1.398       .  A
C460        C465   1.404       .  A
C461        C462   1.394       .  A
C461        H466   1.085       .  S
C462        C629   1.439       .  S
C462        C463   1.399       .  A
C463        C464   1.412       .  A
C463        H467   1.082       .  S
C464        C465   1.407       .  A
C464       C1422   1.492       .  S
C465        H468   1.084       .  S
O469        C484   1.267       .  A
O469      Al2085   1.937   1_455  S
C470        O471   1.255       .  A
C470       O2088   1.265       .  A
C470        C616   1.434       .  S
O471      Al1277   1.879       .  S
O472        C474   1.264       .  A
O472       Al473   1.938       .  S
Al473       O481   1.933   1_545  S
Al473       O483   1.878       .  S
Al473      O1275   1.876   1_545  S
Al473      O2090   1.778   1_455  S
C474        O487   1.254   1_455  A
C474        C639   1.432       .  S
O475        C485   1.265       .  A
O475      Al1281   1.934       .  S
O476        C489   1.263       .  A
O476       Al486   1.926       .  S
Al477      O2077   1.941       .  S
Al477      O1279   1.942   1_545  S
Al477      O1294   1.879       .  S
Al477      O2095   1.874       .  S
Al477       O482   1.778       .  S
O478        C485   1.257       .  A
O478       Al486   1.878       .  S
O479        C488   1.257   1_655  A
O479      Al2094   1.883       .  S
O480       C2078   1.262       .  A
O480       Al486   1.928       .  S
O481       C1292   1.265       .  A
O482      Al2081   1.778       .  S
O482      Al1290   1.779   1_545  S
O483        C484   1.256       .  A
C484        C671   1.431       .  S
C485        C624   1.429       .  S
Al486      O2087   1.885       .  S
Al486      O1286   1.782       .  S
O487      Al2085   1.876       .  S
C488       O1285   1.267       .  A
C488        C656   1.435       .  S
C489        O490   1.255       .  A
C489        C663   1.431       .  S
O490      Al1281   1.884       .  S
O491        C506   1.256       .  A
O491       Al499   1.890       .  S
C492        O502   1.257       .  A
C492        O493   1.264       .  A
C492        C611   1.430       .  S
O493       Al495   1.934       .  S
O494        C496   1.255       .  A
O494       Al495   1.875       .  S
Al495       O503   1.886       .  S
Al495       O505   1.932       .  S
Al495       O504   1.781       .  S
C496        O509   1.267       .  A
C496        C609   1.436       .  S
O497        C507   1.254       .  A
O497       Al499   1.880       .  S
O498        C511   1.258       .  A
O498       Al508   1.888       .  S
Al499       O512   1.945       .  S
Al499       O509   1.947       .  S
Al499       O504   1.780       .  S
O500        C507   1.264       .  A
O500       Al508   1.939       .  S
O501        C510   1.266       .  A
O501       Al508   1.936       .  S
O502       Al508   1.881       .  S
O503        C510   1.257       .  A
O504       Al508   1.782       .  S
O505        C506   1.264       .  A
C506        C768   1.438       .  S
C507        C607   1.435       .  S
C510        C774   1.434       .  S
C511        O512   1.269       .  A
C511        C784   1.441       .  S
C513        C803   1.440       .  S
C513        C514   1.398       .  A
C513        C518   1.404       .  A
C514        C515   1.396       .  A
C514        H519   1.085       .  S
C515        C608   1.442       .  S
C515        C516   1.401       .  A
C516        C517   1.413       .  A
C516        H520   1.081       .  S
C517        C518   1.409       .  A
C517        C603   1.494       .  S
C518        H521   1.084       .  S
C522        C635   1.442       .  S
C522        C523   1.407       .  A
C522        C527   1.400       .  A
C523        C524   1.408       .  A
C523        H528   1.084       .  S
C524        C525   1.402       .  A
C524        C604   1.476       .  S
C525        C526   1.399       .  A
C525        H529   1.085       .  S
C526        C602   1.438       .  S
C526        C527   1.397       .  A
C527        H530   1.085       .  S
C531        C802   1.444       .  S
C531        C536   1.409       .  A
C531       C2140   1.402   1_455  A
C532        C533   1.394       .  A
C532       C2139   1.401       .  A
C532        H537   1.085       .  S
C533        C612   1.436       .  S
C533        C534   1.394       .  A
C534        C535   1.402       .  A
C534        H538   1.085       .  S
C535       C2144   1.413       .  A
C535        C597   1.483       .  S
C536       C2143   1.413   1_455  A
C536        H539   1.083       .  S
C540        C637   1.436       .  S
C540        C541   1.404       .  A
C540        C545   1.397       .  A
C541        C542   1.408       .  A
C541        H546   1.084       .  S
C542        C543   1.413       .  A
C542        C598   1.492       .  S
C543        C544   1.400       .  A
C543        H547   1.083       .  S
C544        C595   1.438       .  S
C544        C545   1.393       .  A
C545        H548   1.085       .  S
C549        C800   1.445       .  S
C549        C554   1.414       .  A
C549       C1354   1.399       .  A
C550        C551   1.396       .  A
C550       C1353   1.398   1_545  A
C550        H555   1.085   1_545  S
C551        C610   1.442       .  S
C551        C552   1.402       .  A
C552        C553   1.413       .  A
C552        H556   1.082       .  S
C553       C1358   1.406   1_545  A
C553        C592   1.492       .  S
C554       C1357   1.417       .  A
C554        H557   1.083       .  S
C558        C634   1.441       .  S
C558        C559   1.409       .  A
C558        C563   1.399       .  A
C559        C560   1.414       .  A
C559        H564   1.083       .  S
C560        C561   1.403       .  A
C560        C591   1.485       .  S
C561        C562   1.395       .  A
C561        H565   1.085       .  S
C562        C589   1.435       .  S
C562        C563   1.393       .  A
C563        H566   1.085       .  S
O567        C582   1.257       .  A
O567       Al575   1.883       .  S
C568        O578   1.254       .  A
C568        O569   1.264       .  A
C568        C596   1.432       .  S
O569       Al571   1.936       .  S
O570        C572   1.255       .  A
O570       Al571   1.878       .  S
Al571       O579   1.879       .  S
Al571       O581   1.932       .  S
Al571       O580   1.780       .  S
C572        O585   1.265       .  A
C572        C601   1.432       .  S
O573        C583   1.256       .  A
O573       Al575   1.875       .  S
O574        C587   1.257       .  A
O574       Al584   1.888       .  S
Al575       O588   1.933       .  S
Al575       O585   1.939       .  S
Al575       O580   1.779       .  S
O576        C583   1.265       .  A
O576       Al584   1.936       .  S
O577        C586   1.266       .  A
O577       Al584   1.935       .  S
O578       Al584   1.875       .  S
O579        C586   1.255       .  A
O580       Al584   1.780       .  S
O581        C582   1.266       .  A
C582        C613   1.431       .  S
C583        C590   1.429       .  S
C586        C622   1.433       .  S
C587        O588   1.265       .  A
C587        C641   1.436       .  S
C589        C590   1.203       .  T
C591        C592   1.346       .  D
C591        H593   1.085       .  S
C592        H594   1.086       .  S
C595        C596   1.204       .  T
C597        C598   1.346       .  D
C597        H599   1.085       .  S
C598        H600   1.086       .  S
C601        C602   1.205       .  T
C603        C604   1.347       .  D
C603        H605   1.087       .  S
C604        H606   1.083       .  S
C607        C608   1.206       .  T
C609        C610   1.207       .  T
C611        C612   1.203       .  T
C613        C614   1.204       .  T
C615        C616   1.206       .  T
C617        C618   1.345       .  D
C617        H619   1.086       .  S
C618       C1268   1.484       .  S
C618       H1424   1.085       .  S
H620       C1422   1.086   1_565  S
C621        C622   1.205       .  T
C623        C624   1.202       .  T
C625        C626   1.347       .  D
C625        H627   1.086       .  S
C626        H628   1.085       .  S
C629        C630   1.205       .  T
C631        C632   1.205       .  T
C633        C634   1.207       .  T
C635        C636   1.207       .  T
C637        C638   1.203       .  T
C639        C640   1.204       .  T
C641        C642   1.207       .  T
C643        C644   1.204       .  T
C645        C646   1.348       .  D
C645        H647   1.085       .  S
C646       C2012   1.493       .  S
C646        H648   1.086       .  S
C649        C650   1.209       .  T
C651        C652   1.204       .  T
C653        C654   1.205       .  T
C655        C656   1.206       .  T
C657        C658   1.205       .  T
C659        C660   1.348       .  D
C659        H661   1.087       .  S
C660        H662   1.082       .  S
C663        C664   1.204       .  T
C665        C666   1.205       .  T
C667        C668   1.345       .  D
C667        H669   1.084       .  S
C668        H670   1.086       .  S
C671        C672   1.204       .  T
C673        C674   1.203       .  T
C675        C676   1.346       .  D
C675        H677   1.085       .  S
C676        H678   1.086       .  S
C679        C680   1.201       .  T
C681        C682   1.203       .  T
C683        C684   1.206       .  T
C685        C686   1.204       .  T
C687        C688   1.203       .  T
C689        C690   1.347       .  D
C689        H691   1.086       .  S
C690        H692   1.085       .  S
C693        C694   1.206       .  T
C695        C696   1.204       .  T
C697        C698   1.348       .  D
C697        H699   1.085   1_545  S
C698        H700   1.086       .  S
C701        C702   1.206       .  T
C703        C704   1.208       .  T
C705        C706   1.347       .  D
C705        H707   1.085       .  S
C706        H708   1.086       .  S
C709        C710   1.204       .  T
C711        C712   1.205       .  T
C713        C714   1.204       .  T
C715        C716   1.208       .  T
C717        C718   1.207       .  T
C719        C720   1.206       .  T
C721        C722   1.208       .  T
C723        C724   1.203       .  T
C725       C1778   1.496       .  S
C725        C726   1.348   1_655  D
C725       H2335   1.086   1_655  S
C726        H728   1.085       .  S
H727       C2333   1.086       .  S
C729        C730   1.206       .  T
C731        C732   1.204       .  T
C733        C734   1.346       .  D
C733        H735   1.087       .  S
C734        H736   1.084       .  S
C737        C738   1.206       .  T
C739        C740   1.206       .  T
C741        C742   1.206       .  T
C743        C744   1.207       .  T
C745        C746   1.205       .  T
C747        C748   1.209       .  T
C749        C750   1.202       .  T
C751        C752   1.205       .  T
C753        C905   1.497   1_545  S
C753        C754   1.346       .  D
C753        H755   1.086       .  S
C754        H756   1.084       .  S
C757        C758   1.209       .  T
C759        C760   1.209       .  T
C761        C762   1.205       .  T
C763        C764   1.206       .  T
C765        C766   1.203       .  T
C767        C768   1.208       .  T
C769        C770   1.345       .  D
C769        H771   1.085       .  S
C770        H772   1.086       .  S
C773        C774   1.206       .  T
C775        C776   1.204       .  T
C777        C778   1.207       .  T
C779        C780   1.346       .  D
C779        H781   1.086       .  S
C780        H782   1.086   1_455  S
C783        C784   1.210       .  T
C785        C786   1.206       .  T
C787        C788   1.207       .  T
C789        C790   1.347       .  D
C789        H791   1.086       .  S
C790        H792   1.084       .  S
C793        C794   1.204       .  T
C795        C796   1.205       .  T
C797        C798   1.203       .  T
C799        C800   1.210       .  T
C801        C802   1.208       .  T
C803        C804   1.206       .  T
O805        C820   1.265       .  A
O805       Al813   1.935       .  S
C806        O816   1.263       .  A
C806        O807   1.254       .  A
C806       C1597   1.430       .  S
O807       Al809   1.878       .  S
O808        C810   1.266       .  A
O808       Al809   1.939       .  S
Al809       O817   1.937       .  S
Al809       O819   1.885       .  S
Al809       O818   1.779       .  S
C810        O823   1.254       .  A
C810       C1601   1.432       .  S
O811        C821   1.266       .  A
O811       Al813   1.939       .  S
O812        C825   1.264       .  A
O812       Al822   1.929       .  S
Al813       O826   1.886       .  S
Al813       O823   1.873       .  S
Al813       O818   1.779       .  S
O814        C821   1.257       .  A
O814       Al822   1.876       .  S
O815        C824   1.257       .  A
O815       Al822   1.877       .  S
O816       Al822   1.934       .  S
O817        C824   1.267       .  A
O818       Al822   1.779       .  S
O819        C820   1.255       .  A
C820       C1608   1.438       .  S
C821       C1600   1.429       .  S
C824       C1605   1.430       .  S
C825        O826   1.257       .  A
C825       C1603   1.431       .  S
C827       C1589   1.439       .  S
C827        C828   1.406       .  A
C827        C832   1.398       .  A
C828        C829   1.407       .  A
C828        H833   1.084       .  S
C829        C830   1.403       .  A
C829       C1593   1.474       .  S
C830        C831   1.399       .  A
C830        H834   1.084       .  S
C831       C1591   1.435       .  S
C831        C832   1.395       .  A
C832        H835   1.085       .  S
C836       C1587   1.436       .  S
C836        C837   1.397       .  A
C836        C841   1.402       .  A
C837        C838   1.394       .  A
C837        H842   1.085       .  S
C838       C1602   1.439       .  S
C838        C839   1.403       .  A
C839        C840   1.410       .  A
C839        H843   1.084       .  S
C840        C841   1.406       .  A
C840       C1594   1.483       .  S
C841        H844   1.084       .  S
C845       C1580   1.439       .  S
C845        C846   1.410       .  A
C845        C850   1.399       .  A
C846        C847   1.413       .  A
C846        H851   1.083       .  S
C847        C848   1.401       .  A
C847       C1584   1.479       .  S
C848        C849   1.391       .  A
C848        H852   1.085       .  S
C849       C1581   1.431       .  S
C849        C850   1.392       .  A
C850        H853   1.085       .  S
C854       C1577   1.436       .  S
C854       C2463   1.398       .  A
C854        C859   1.403       .  A
C855       C2462   1.398   1_455  A
C855        C856   1.393       .  A
C855       H2468   1.085   1_455  S
C856       C1598   1.436       .  S
C856        C857   1.397       .  A
C857        C858   1.411       .  A
C857        H861   1.083       .  S
C858       C2467   1.407   1_455  A
C858       C1583   1.490       .  S
C859       C2466   1.406       .  A
C859        H862   1.084       .  S
H860       C2463   1.085       .  S
C863       C1571   1.437       .  S
C863        C868   1.404       .  A
C864        C865   1.393       .  A
C864        H869   1.085   1_565  S
C865       C1599   1.436       .  S
C865        C866   1.394       .  A
C866        C867   1.404       .  A
C866        H870   1.085       .  S
C867       C1574   1.486       .  S
C868        H871   1.084       .  S
C872       C1567   1.439       .  S
C872        C873   1.405       .  A
C872        C877   1.398       .  A
C873        C874   1.408       .  A
C873        H878   1.084       .  S
C874        C875   1.413       .  A
C874       C1573   1.493       .  S
C875        C876   1.400       .  A
C875        H879   1.083       .  S
C876       C1569   1.440       .  S
C876        C877   1.394       .  A
C877        H880   1.085       .  S
O881        C896   1.265       .  A
O881       Al889   1.930       .  S
C882        O892   1.263       .  A
C882        O883   1.257       .  A
C882       C1582   1.425       .  S
O883       Al885   1.879       .  S
O884        C886   1.264       .  A
O884       Al885   1.937       .  S
Al885       O893   1.932       .  S
Al885       O895   1.878       .  S
Al885       O894   1.780       .  S
C886        O899   1.254       .  A
C886       C1570   1.434       .  S
O887        C897   1.265       .  A
O887       Al889   1.933       .  S
O888        C901   1.263       .  A
O888       Al898   1.928       .  S
Al889       O902   1.884       .  S
Al889       O899   1.878       .  S
Al889       O894   1.779       .  S
O890        C897   1.256       .  A
O890       Al898   1.876       .  S
O891        C900   1.258       .  A
O891       Al898   1.889       .  S
O892       Al898   1.928       .  S
O893        C900   1.265       .  A
O894       Al898   1.781       .  S
O895        C896   1.256       .  A
C896       C1563   1.429       .  S
C897       C1592   1.429       .  S
C900       C1566   1.433       .  S
C901        O902   1.255       .  A
C901       C1562   1.433       .  S
C903       C1561   1.439       .  S
C903        C904   1.405       .  A
C903        C908   1.398       .  A
C904        C905   1.409       .  A
C904        H909   1.084       .  S
C905        C906   1.414       .  A
C906        C907   1.401       .  A
C906        H910   1.082       .  S
C907       C1556   1.442       .  S
C907        C908   1.394       .  A
C908        H911   1.085       .  S
C912       C1552   1.437       .  S
C912        C913   1.397       .  A
C912        C917   1.402       .  A
C913        C914   1.396       .  A
C913        H918   1.085       .  S
C914       C1554   1.443       .  S
C914        C915   1.405       .  A
C915        C916   1.414       .  A
C915        H919   1.082       .  S
C916        C917   1.407       .  A
C916       C1558   1.491       .  S
C917        H920   1.084       .  S
O921        C936   1.256       .  A
O921       Al929   1.885       .  S
C922        O932   1.254       .  A
C922        O923   1.266       .  A
C922       C1544   1.431       .  S
O924        C926   1.253       .  A
O924      Al2533   1.872       .  S
Al925      O2532   1.875   1_455  S
Al925      O2543   1.938   1_455  S
Al925      O1738   1.779   1_465  S
C926        O939   1.266       .  A
C926       C1542   1.434       .  S
O927        C937   1.254       .  A
O928        C941   1.256       .  A
O928      Al2546   1.886       .  S
Al929       O939   1.944       .  S
O930        C937   1.268       .  A
O930      Al2546   1.950       .  S
O931        C940   1.267       .  A
O931       Al938   1.942       .  S
O932       Al938   1.873       .  S
O933        C940   1.256       .  A
O934      Al1729   1.780       .  S
O934      Al2546   1.779       .  S
O935        C936   1.266       .  A
O935      Al2533   1.936       .  S
C936       C1546   1.437       .  S
C937       C1553   1.437       .  S
Al938      O2536   1.881       .  S
Al938      O2538   1.945   1_455  S
Al938      O2542   1.778   1_455  S
C940       C1547   1.438       .  S
C941        O942   1.267       .  A
C941       C1549   1.439       .  S
C943        C944   1.406       .  A
C943        C948   1.408       .  A
C943       C1538   1.482       .  S
C944        C945   1.403       .  A
C944        H949   1.084       .  S
C945       C1565   1.439       .  S
C945        C946   1.399       .  A
C946        C947   1.397       .  A
C946        H950   1.085       .  S
C947       C1536   1.440       .  S
C947        C948   1.401       .  A
C948        H951   1.084       .  S
C952       C1533   1.437       .  S
C952        C953   1.399       .  A
C952        C957   1.403       .  A
C953        C954   1.396       .  A
C953        H958   1.085       .  S
C954       C1543   1.437       .  S
C954        C955   1.401       .  A
C955        C956   1.405       .  A
C955        H959   1.084       .  S
C956        C957   1.405       .  A
C956       C1537   1.474       .  S
C957        H960   1.084       .  S
C961       C1564   1.435       .  S
C961        C962   1.404       .  A
C961        C966   1.396       .  A
C962        C963   1.407       .  A
C962        H967   1.084       .  S
C963        C964   1.411       .  A
C963       C1530   1.489       .  S
C964        C965   1.398       .  A
C964        H968   1.083       .  S
C965       C1527   1.435       .  S
C965        C966   1.392       .  A
C966        H969   1.085       .  S
C970       C1525   1.435       .  S
C970        C971   1.398       .  A
C970        C975   1.402       .  A
C971        C972   1.394       .  A
C971        H976   1.085       .  S
C972       C1541   1.441       .  S
C972        C973   1.402       .  A
C973        C974   1.414       .  A
C973        H977   1.082       .  S
C974        C975   1.406       .  A
C974       C3137   1.492       .  S
C975        H978   1.084       .  S
O979        C994   1.258       .  A
O979       Al987   1.884       .  S
C980        O990   1.254       .  A
C980        O981   1.264       .  A
C980       C1535   1.434       .  S
O981      Al2591   1.936   1_455  S
O982       Al983   1.880       .  S
Al983      O2589   1.932       .  S
Al983       O991   1.888       .  S
C984        O997   1.264       .  A
C984       C1555   1.435       .  S
O985       C2603   1.258       .  A
O985       Al987   1.881       .  S
O986        C999   1.256   1_545  A
Al987      O2608   1.934       .  S
Al987       O997   1.940       .  S
Al987       O992   1.782   1_565  S
O988        C995   1.265       .  A
O989        C998   1.266       .  A
O989       Al996   1.933       .  S
O990       Al996   1.879       .  S
O991       C2606   1.257       .  A
O992      Al1800   1.781       .  S
O993        C994   1.267       .  A
C994       C1590   1.434       .  S
C995       O2593   1.255   1_455  A
C995       C1528   1.428       .  S
Al996      O1796   1.781       .  S
C998       O2599   1.256   1_455  A
C998       C1579   1.434       .  S
C999       O1000   1.265       .  A
C999       C1568   1.433       .  S
O1000     Al2595   1.934   1_455  S
O1001      C1016   1.266       .  A
O1001     Al1009   1.938       .  S
C1002      O1012   1.267       .  A
C1002      O1003   1.254       .  A
C1002      C1515   1.434       .  S
O1003     Al1005   1.873   1_554  S
O1004      C1006   1.266       .  A
O1004     Al1005   1.943   1_554  S
Al1005     O1013   1.941       .  S
Al1005     O1015   1.883       .  S
Al1005     O1014   1.778       .  S
C1006      O1019   1.255       .  A
C1006      C1514   1.432       .  S
O1007      C1017   1.265       .  A
O1007     Al1009   1.941   1_554  S
O1008      C1021   1.268       .  A
O1008     Al1018   1.943       .  S
Al1009     O1022   1.880       .  S
Al1009     O1019   1.875   1_556  S
Al1009     O1014   1.779       .  S
O1010      C1017   1.254       .  A
O1010     Al1018   1.875   1_554  S
O1011      C1020   1.255       .  A
O1011     Al1018   1.883       .  S
O1012     Al1018   1.945   1_554  S
O1013      C1020   1.267       .  A
O1014     Al1018   1.778       .  S
O1015      C1016   1.256       .  A
C1016      C1523   1.434       .  S
C1017      C1517   1.432       .  S
C1020      C1521   1.438       .  S
C1021      O1022   1.256       .  A
C1021      C1519   1.435       .  S
C1023      C1507   1.436       .  S
C1023      C1024   1.397       .  A
C1023      C1028   1.405       .  A
C1024      C1025   1.393       .  A
C1024      H1029   1.085       .  S
C1025      C1513   1.438       .  S
C1025      C1026   1.400       .  A
C1026      C1027   1.413       .  A
C1026      H1030   1.082       .  S
C1027      C1028   1.408       .  A
C1027      C1509   1.493       .  S
C1028      H1031   1.084       .  S
C1032      C1545   1.442       .  S
C1032      C1033   1.411       .  A
C1032      C1037   1.399       .  A
C1033      C1034   1.414       .  A
C1033      H1038   1.083       .  S
C1034      C1035   1.402       .  A
C1034      C1510   1.483       .  S
C1035      C1036   1.392       .  A
C1035      H1039   1.085       .  S
C1036      C1506   1.434       .  S
C1036      C1037   1.393       .  A
C1037      H1040   1.085       .  S
C1041      C1042   1.414       .  A
C1041      C1502   1.495       .  S
C1042      C1043   1.402       .  A
C1042      H1047   1.082       .  S
C1043      C1516   1.440       .  S
C1043      C1044   1.393       .  A
C1044      H1048   1.085       .  S
C1045      C1499   1.448       .  S
C1045      C1046   1.415       .  A
C1046      H1049   1.082       .  S
C1050      C1548   1.443       .  S
C1050      C1051   1.412       .  A
C1050      C1055   1.400       .  A
C1051      C1052   1.414       .  A
C1051      H1056   1.083       .  S
C1052      C1053   1.401       .  A
C1052      C1501   1.483       .  S
C1053      C1054   1.393       .  A
C1053      H1057   1.085       .  S
C1054      C1498   1.433       .  S
C1054      C1055   1.393       .  A
C1055      H1058   1.085       .  S
C1059      C1491   1.442       .  S
C1059      C2668   1.399   1_455  A
C1059      C1064   1.412       .  A
C1060      C2667   1.397       .  A
C1060      C1061   1.393       .  A
C1060      H1065   1.085       .  S
C1061      C1518   1.439       .  S
C1061      C1062   1.400       .  A
C1062      C1063   1.414       .  A
C1062      H1066   1.082       .  S
C1063      C2672   1.409       .  A
C1063      C1494   1.495       .  S
C1064      C2671   1.415   1_455  A
C1064      H1067   1.083       .  S
C1068      C1550   1.444       .  S
C1068      C1069   1.413       .  A
C1068      C1073   1.400       .  A
C1069      C1070   1.415       .  A
C1069      H1074   1.083       .  S
C1070      C1071   1.402       .  A
C1070      C1493   1.486       .  S
C1071      C1072   1.392       .  A
C1071      H1075   1.085       .  S
C1072      C1490   1.433       .  S
C1072      C1073   1.392       .  A
C1073      H1076   1.085       .  S
O1077      C1092   1.263       .  A
O1077     Al1085   1.923       .  S
C1078      O1088   1.262       .  A
C1078      O1079   1.256       .  A
C1078      C1497   1.428       .  S
O1079     Al1081   1.880       .  S
O1080      C1082   1.263       .  A
O1080     Al1081   1.928       .  S
Al1081     O1089   1.923       .  S
Al1081     O1091   1.888       .  S
Al1081     O1090   1.781       .  S
C1082      O1095   1.256       .  A
C1082      C1489   1.427       .  S
O1083      C1093   1.262       .  A
O1083     Al1085   1.927       .  S
O1084      C1097   1.263       .  A
O1084     Al1094   1.923       .  S
Al1085     O1098   1.883       .  S
Al1085     O1095   1.879       .  S
Al1085     O1090   1.781       .  S
O1086      C1093   1.256       .  A
O1086     Al1094   1.880       .  S
O1087      C1096   1.257       .  A
O1087     Al1094   1.887       .  S
O1088     Al1094   1.926       .  S
O1089      C1096   1.263       .  A
O1090     Al1094   1.781       .  S
O1091      C1092   1.257       .  A
C1092      C1551   1.431       .  S
C1093      C1505   1.428       .  S
C1096      C1534   1.431       .  S
C1097      O1098   1.257       .  A
C1097      C1526   1.429       .  S
O1099      C1114   1.255       .  A
O1099     Al1107   1.883       .  S
C1100      O1110   1.257       .  A
C1100      O1101   1.266       .  A
C1100      C1483   1.431       .  S
O1101     Al1103   1.939   1_556  S
O1102      C1104   1.254       .  A
O1102     Al1103   1.876   1_556  S
Al1103     O1111   1.891       .  S
Al1103     O1113   1.937       .  S
Al1103     O1112   1.780       .  S
C1104      O1117   1.265       .  A
C1104      C1488   1.432       .  S
O1105      C1115   1.254       .  A
O1105     Al1107   1.879   1_556  S
O1106      C1119   1.257       .  A
O1106     Al1116   1.882       .  S
Al1107     O1120   1.932       .  S
Al1107     O1117   1.936   1_554  S
Al1107     O1112   1.782       .  S
O1108      C1115   1.266       .  A
O1108     Al1116   1.948   1_556  S
O1109      C1118   1.267       .  A
O1109     Al1116   1.946       .  S
O1110     Al1116   1.877   1_556  S
O1111      C1118   1.257       .  A
O1112     Al1116   1.780       .  S
O1113      C1114   1.266       .  A
C1114      C1492   1.437       .  S
C1115      C1485   1.437       .  S
C1118      C1500   1.443       .  S
C1119      O1120   1.266       .  A
C1119      C1508   1.431       .  S
C1121      C1476   1.442       .  S
C1121      C1122   1.412       .  A
C1121      C1126   1.399       .  A
C1122      C1123   1.415       .  A
C1122      H1127   1.083       .  S
C1123      C1124   1.404       .  A
C1123      C1479   1.487       .  S
C1124      C1125   1.394       .  A
C1124      H1128   1.085       .  S
C1125      C1478   1.435       .  S
C1125      C1126   1.392       .  A
C1126      H1129   1.085       .  S
C1130      C1524   1.440       .  S
C1130      C1131   1.399       .  A
C1130      C1135   1.406       .  A
C1131      C1132   1.395       .  A
C1131      H1136   1.085       .  S
C1132      C1486   1.443       .  S
C1132      C1133   1.401       .  A
C1133      C1134   1.414       .  A
C1133      H1137   1.082       .  S
C1134      C1135   1.408       .  A
C1134      C1480   1.495       .  S
C1135      H1138   1.084       .  S
C1139      C1468   1.439       .  S
C1139      C1140   1.407       .  A
C1139      C1144   1.397       .  A
C1140      C1141   1.409       .  A
C1140      H1145   1.084       .  S
C1141      C1142   1.411       .  A
C1141      C1472   1.492       .  S
C1142      C1143   1.398       .  A
C1142      H1146   1.083       .  S
C1143      C1469   1.437       .  S
C1143      C1144   1.393       .  A
C1144      H1147   1.085       .  S
C1148      C1522   1.442       .  S
C1148      C1153   1.412       .  A
C1149      C1150   1.394       .  A
C1150      C1484   1.437       .  S
C1150      C1151   1.395       .  A
C1151      C1152   1.404       .  A
C1151      H1155   1.085       .  S
C1152      C1471   1.484       .  S
C1153      H1156   1.083       .  S
C1157      C1459   1.439       .  S
C1157      C1158   1.404       .  A
C1157      C1162   1.397       .  A
C1158      C1159   1.408       .  A
C1158      H1163   1.084       .  S
C1159      C1160   1.413       .  A
C1159      C1463   1.490       .  S
C1160      C1161   1.404       .  A
C1160      H1164   1.083       .  S
C1161      C1462   1.442       .  S
C1161      C1162   1.395       .  A
C1162      H1165   1.085       .  S
C1166      C1520   1.441       .  S
C1166      C2775   1.395       .  A
C1166      C1171   1.407       .  A
C1167      C2774   1.399   1_455  A
C1167      C1168   1.395       .  A
C1167      H1172   1.085   1_455  S
C1168      C1487   1.438       .  S
C1168      C1169   1.400       .  A
C1169      C1170   1.404       .  A
C1169      H1173   1.084       .  S
C1170      C2779   1.409   1_455  A
C1170      C1464   1.478       .  S
C1171      C2778   1.412       .  A
C1171      H1174   1.084       .  S
O1175      C1190   1.256       .  A
O1175     Al1183   1.882       .  S
C1176      O1186   1.254       .  A
C1176      O1177   1.263       .  A
C1176      C1470   1.430       .  S
O1177     Al1179   1.935       .  S
O1178      C1180   1.256       .  A
O1178     Al1179   1.877       .  S
Al1179     O1187   1.879       .  S
Al1179     O1189   1.931       .  S
Al1179     O1188   1.779       .  S
C1180      O1193   1.265       .  A
C1180      C1477   1.428       .  S
O1181      C1191   1.254       .  A
O1181     Al1183   1.873       .  S
O1182      C1195   1.255       .  A
O1182     Al1192   1.884       .  S
Al1183     O1196   1.932       .  S
Al1183     O1193   1.937       .  S
Al1183     O1188   1.780       .  S
O1184      C1191   1.268       .  A
O1184     Al1192   1.948       .  S
O1185      C1194   1.269       .  A
O1185     Al1192   1.947       .  S
O1186     Al1192   1.875       .  S
O1187      C1194   1.256       .  A
O1188     Al1192   1.778       .  S
O1189      C1190   1.265       .  A
C1190      C1457   1.430       .  S
C1191      C1461   1.435       .  S
C1194      C1454   1.437       .  S
C1195      O1196   1.265       .  A
C1195      C1456   1.434       .  S
C1197      C1446   1.442       .  S
C1197      C1198   1.412       .  A
C1197      C1202   1.399       .  A
C1198      C1199   1.415       .  A
C1198      H1203   1.083       .  S
C1199      C1200   1.401       .  A
C1199      C1449   1.483       .  S
C1200      C1201   1.391       .  A
C1200      H1204   1.085       .  S
C1201      C1448   1.431       .  S
C1201      C1202   1.392       .  A
C1202      H1205   1.085       .  S
C1206      C1458   1.436       .  S
C1206      C1207   1.404       .  A
C1206      C1211   1.397       .  A
C1207      C1208   1.407       .  A
C1207      H1212   1.084       .  S
C1208      C1209   1.414       .  A
C1208      C3058   1.493   1_455  S
C1209      C1210   1.401       .  A
C1209      H1213   1.082       .  S
C1210      C1444   1.440       .  S
C1210      C1211   1.394       .  A
C1211      H1214   1.085       .  S
O1215      C1230   1.267       .  A
C1216      O1226   1.263       .  A
C1216      O1217   1.257       .  A
C1216      C1447   1.425       .  S
O1217     Al2827   1.879       .  S
O1218      C1220   1.262       .  A
O1218     Al1219   1.930       .  S
Al1219     O2825   1.876   1_455  S
Al1219     O1227   1.926   1_455  S
Al1219     O1229   1.883       .  S
Al1219     O2836   1.781   1_455  S
C1220      O1233   1.255       .  A
C1220      C1434   1.428       .  S
O1221      C1231   1.265       .  A
O1221     Al2831   1.942       .  S
O1222      C1235   1.265       .  A
O1222     Al1232   1.930       .  S
Al1223     O2829   1.945   1_455  S
Al1223     O2844   1.886       .  S
Al1223     O2032   1.779   1_565  S
O1224      C1231   1.255       .  A
O1224     Al1232   1.880       .  S
O1225      C1234   1.257       .  A
O1227      C2842   1.263       .  A
O1228     Al2827   1.779       .  S
O1228     Al2027   1.778       .  S
O1229      C1230   1.258       .  A
C1230      C1440   1.432       .  S
C1231      C1436   1.436       .  S
C1234      O2835   1.265       .  A
C1234      C1437   1.433       .  S
C1235      O1236   1.258       .  A
C1235      C1442   1.435       .  S
O1236     Al2831   1.889       .  S
C1237      C1453   1.442       .  S
C1237      C1238   1.410       .  A
C1237      C1242   1.397       .  A
C1238      C1239   1.412       .  A
C1238      H1243   1.084       .  S
C1239      C1240   1.413       .  A
C1239      C1430   1.499       .  S
C1240      C1241   1.400       .  A
C1240      H1244   1.083       .  S
C1241      C1427   1.440       .  S
C1241      C1242   1.393       .  A
C1242      H1245   1.085       .  S
C1246      C1425   1.448       .  S
C1246      C1247   1.402       .  A
C1246      C1251   1.415       .  A
C1247      C1248   1.395       .  A
C1247      H1252   1.085       .  S
C1248      C1435   1.442       .  S
C1248      C1249   1.396       .  A
C1249      C1250   1.405       .  A
C1249      H1253   1.085       .  S
C1250      C1251   1.416       .  A
C1250      C1429   1.491       .  S
C1251      H1254   1.083       .  S
C1255      C1455   1.439       .  S
C1255      C1256   1.410       .  A
C1255      C1260   1.398       .  A
C1256      C1257   1.414       .  A
C1256      H1261   1.083       .  S
C1257      C1258   1.402       .  A
C1257      C1421   1.483       .  S
C1258      C1259   1.392       .  A
C1258      H1262   1.085       .  S
C1259      C1419   1.430       .  S
C1259      C1260   1.391       .  A
C1260      H1263   1.085       .  S
C1264      C1418   1.443       .  S
C1264      C1265   1.401       .  A
C1264      C1269   1.411       .  A
C1265      C1266   1.393       .  A
C1265      H1270   1.085       .  S
C1266      C1433   1.434       .  S
C1266      C1267   1.392       .  A
C1267      C1268   1.402       .  A
C1267      H1271   1.085       .  S
C1268      C1269   1.414       .  A
C1269      H1272   1.083       .  S
O1273      C1288   1.266       .  A
O1273     Al2889   1.936   1_455  S
C1274      O2892   1.263       .  A
C1274      O1275   1.257       .  A
C1274      C1420   1.424       .  S
O1276      C1278   1.266       .  A
O1276     Al1277   1.942       .  S
Al1277     O1285   1.939       .  S
Al1277     O1287   1.886       .  S
Al1277     O2894   1.779       .  S
C1278      O1291   1.254   1_455  A
C1278      C1443   1.433       .  S
O1279      C1289   1.266       .  A
O1280      C1293   1.267       .  A
O1280     Al1290   1.940       .  S
Al1281     O2881   1.930       .  S
Al1281     O2899   1.875       .  S
Al1281     O1286   1.779       .  S
O1282      C1289   1.254       .  A
O1282     Al1290   1.875       .  S
O1283      C1292   1.257   1_655  A
O1283     Al2898   1.886       .  S
O1284      C2882   1.266       .  A
O1284     Al1290   1.942       .  S
O1286     Al2885   1.780       .  S
O1287      C1288   1.256       .  A
C1288      C1475   1.437       .  S
C1289      C1428   1.433       .  S
Al1290     O2891   1.883       .  S
O1291     Al2889   1.874       .  S
C1292      C1460   1.433       .  S
C1293      O1294   1.256   1_565  A
C1293      C1467   1.433       .  S
O1295      C1310   1.257       .  A
O1295     Al1303   1.882       .  S
C1296      O1306   1.255       .  A
C1296      O1297   1.265       .  A
C1296      C1415   1.432       .  S
O1297     Al1299   1.936       .  S
O1298      C1300   1.255       .  A
O1298     Al1299   1.878       .  S
Al1299     O1307   1.882       .  S
Al1299     O1309   1.932       .  S
Al1299     O1308   1.778       .  S
C1300      O1313   1.262       .  A
C1300      C1413   1.427       .  S
O1301      C1311   1.256       .  A
O1301     Al1303   1.877       .  S
O1302      C1315   1.257       .  A
O1302     Al1312   1.887       .  S
Al1303     O1316   1.924       .  S
Al1303     O1313   1.929       .  S
Al1303     O1308   1.781       .  S
O1304      C1311   1.264       .  A
O1304     Al1312   1.929       .  S
O1305      C1314   1.263       .  A
O1305     Al1312   1.926       .  S
O1306     Al1312   1.877       .  S
O1307      C1314   1.256       .  A
O1308     Al1312   1.780       .  S
O1309      C1310   1.266       .  A
C1310      C1572   1.431       .  S
C1311      C1411   1.426       .  S
C1314      C1578   1.430       .  S
C1315      O1316   1.263       .  A
C1315      C1588   1.430       .  S
C1317      C1607   1.442       .  S
C1317      C1318   1.398       .  A
C1317      C1322   1.412       .  A
C1318      C1319   1.391       .  A
C1318      H1323   1.085       .  S
C1319      C1412   1.432       .  S
C1319      C1320   1.394       .  A
C1320      C1321   1.403       .  A
C1320      H1324   1.085       .  S
C1321      C1322   1.415       .  A
C1321      C1407   1.485       .  S
C1322      H1325   1.083       .  S
C1326      C1439   1.438       .  S
C1326      C1327   1.404       .  A
C1326      C1331   1.397       .  A
C1327      C1328   1.408       .  A
C1327      H1332   1.084       .  S
C1328      C1329   1.414       .  A
C1328      C1408   1.495       .  S
C1329      C1330   1.402       .  A
C1329      H1333   1.082       .  S
C1330      C1406   1.441       .  S
C1330      C1331   1.394       .  A
C1331      H1334   1.085       .  S
C1335      C1606   1.436       .  S
C1335      C2944   1.398   1_455  A
C1335      C1340   1.404       .  A
C1336      C2943   1.398       .  A
C1336      C1337   1.394       .  A
C1336      H1341   1.085       .  S
C1337      C1416   1.438       .  S
C1337      C1338   1.399       .  A
C1338      C1339   1.411       .  A
C1338      H1342   1.083       .  S
C1339      C2948   1.406       .  A
C1339      C1401   1.489       .  S
C1340      C2947   1.406   1_455  A
C1340      H1343   1.084       .  S
C1344      C1441   1.440       .  S
C1344      C1345   1.408       .  A
C1344      C1349   1.400       .  A
C1345      C1346   1.412       .  A
C1345      H1350   1.083       .  S
C1346      C1347   1.403       .  A
C1346      C1402   1.482       .  S
C1347      C1348   1.394       .  A
C1347      H1351   1.085       .  S
C1348      C1399   1.436       .  S
C1348      C1349   1.394       .  A
C1349      H1352   1.085       .  S
C1353      C1604   1.437       .  S
C1353      C1358   1.402       .  A
C1354      C1355   1.392       .  A
C1354      H1359   1.085       .  S
C1355      C1414   1.434       .  S
C1355      C1356   1.393       .  A
C1356      C1357   1.402       .  A
C1356      H1360   1.085       .  S
C1357      C1396   1.488       .  S
C1358      H1361   1.084       .  S
C1362      C1438   1.440       .  S
C1362      C1363   1.404       .  A
C1362      C1367   1.400       .  A
C1363      C1364   1.407       .  A
C1363      H1368   1.084       .  S
C1364      C1365   1.415       .  A
C1364      C1395   1.496       .  S
C1365      C1366   1.403       .  A
C1365      H1369   1.082       .  S
C1366      C1393   1.446       .  S
C1366      C1367   1.397       .  A
C1367      H1370   1.085       .  S
O1371      C1386   1.256       .  A
O1371     Al1379   1.887       .  S
C1372      O1382   1.256       .  A
C1372      O1373   1.265       .  A
C1372      C1400   1.430       .  S
O1373     Al1375   1.936       .  S
O1374      C1376   1.254       .  A
O1374     Al1375   1.874       .  S
Al1375     O1383   1.890       .  S
Al1375     O1385   1.935       .  S
Al1375     O1384   1.781       .  S
C1376      O1389   1.267       .  A
C1376      C1405   1.434       .  S
O1377      C1387   1.254       .  A
O1377     Al1379   1.879       .  S
O1378      C1391   1.257       .  A
O1378     Al1388   1.885       .  S
Al1379     O1392   1.941       .  S
Al1379     O1389   1.945       .  S
Al1379     O1384   1.781       .  S
O1380      C1387   1.267       .  A
O1380     Al1388   1.952       .  S
O1381      C1390   1.269       .  A
O1381     Al1388   1.949       .  S
O1382     Al1388   1.878       .  S
O1383      C1390   1.258       .  A
O1384     Al1388   1.780       .  S
O1385      C1386   1.265       .  A
C1386      C1417   1.438       .  S
C1387      C1394   1.440       .  S
C1390      C1426   1.443       .  S
C1391      O1392   1.268       .  A
C1391      C1445   1.438       .  S
C1393      C1394   1.209       .  T
C1395      C1396   1.346       .  D
C1395      H1397   1.086       .  S
C1396      H1398   1.085       .  S
C1399      C1400   1.203       .  T
C1401      C1402   1.345       .  D
C1401      H1403   1.086       .  S
C1402      H1404   1.086       .  S
C1405      C1406   1.206       .  T
C1407      C1408   1.346       .  D
C1407      H1409   1.085       .  S
C1408      H1410   1.086       .  S
C1411      C1412   1.201       .  T
C1413      C1414   1.202       .  T
C1415      C1416   1.204       .  T
C1417      C1418   1.208       .  T
C1419      C1420   1.200       .  T
C1421      C1422   1.345   1_565  D
C1421      H1423   1.085       .  S
C1425      C1426   1.211       .  T
C1427      C1428   1.205       .  T
C1429      C1430   1.349       .  D
C1429      H1431   1.086       .  S
C1430      H1432   1.086       .  S
C1433      C1434   1.202       .  T
C1435      C1436   1.206       .  T
C1437      C1438   1.205       .  T
C1439      C1440   1.204       .  T
C1441      C1442   1.206       .  T
C1443      C1444   1.205       .  T
C1445      C1446   1.208       .  T
C1447      C1448   1.200       .  T
C1449      C1450   1.344       .  D
C1449      H1451   1.085       .  S
C1450      C2816   1.492       .  S
C1450      H1452   1.086       .  S
C1453      C1454   1.208       .  T
C1455      C1456   1.206       .  T
C1457      C1458   1.203       .  T
C1459      C1460   1.205       .  T
C1461      C1462   1.207       .  T
C1463      C1464   1.346       .  D
C1463      H1465   1.087       .  S
C1464      H1466   1.085       .  S
C1467      C1468   1.205       .  T
C1469      C1470   1.203       .  T
C1471      C1472   1.347       .  D
C1471      H1473   1.086       .  S
C1472      H1474   1.086   1_565  S
C1475      C1476   1.207       .  T
C1477      C1478   1.202       .  T
C1479      C1480   1.347       .  D
C1479      H1481   1.085       .  S
C1480      H1482   1.086       .  S
C1483      C1484   1.204       .  T
C1485      C1486   1.207       .  T
C1487      C1488   1.204       .  T
C1489      C1490   1.202       .  T
C1491      C1492   1.207       .  T
C1493      C1494   1.346       .  D
C1493      H1495   1.085       .  S
C1494      H1496   1.086       .  S
C1497      C1498   1.202       .  T
C1499      C1500   1.211       .  T
C1501      C1502   1.345       .  D
C1501      H1503   1.085       .  S
C1502      H1504   1.086       .  S
C1505      C1506   1.202       .  T
C1507      C1508   1.204       .  T
C1509      C1510   1.346       .  D
C1509      H1511   1.086       .  S
C1510      H1512   1.085       .  S
C1513      C1514   1.204       .  T
C1515      C1516   1.206       .  T
C1517      C1518   1.205       .  T
C1519      C1520   1.206       .  T
C1521      C1522   1.208       .  T
C1523      C1524   1.206       .  T
C1525      C1526   1.202       .  T
C1527      C1528   1.202       .  T
C1529      C2582   1.483       .  S
C1529      C1530   1.346   1_655  D
C1529      H3139   1.085       .  S
C1530      H1532   1.085   1_455  S
H1531      C3137   1.086       .  S
C1533      C1534   1.204       .  T
C1535      C1536   1.206       .  T
C1537      C1538   1.344       .  D
C1537      H1539   1.086       .  S
C1538      H1540   1.087       .  S
C1541      C1542   1.206       .  T
C1543      C1544   1.204       .  T
C1545      C1546   1.207       .  T
C1547      C1548   1.208       .  T
C1549      C1550   1.209       .  T
C1551      C1552   1.204       .  T
C1553      C1554   1.208       .  T
C1555      C1556   1.206       .  T
C1557      C1558   1.345       .  D
C1557      H1559   1.084       .  S
C1558      H1560   1.087       .  S
C1561      C1562   1.205       .  T
C1563      C1564   1.203       .  T
C1565      C1566   1.205       .  T
C1567      C1568   1.205       .  T
C1569      C1570   1.205       .  T
C1571      C1572   1.204       .  T
C1573      C1574   1.347       .  D
C1573      H1575   1.085       .  S
C1574      H1576   1.085       .  S
C1577      C1578   1.203       .  T
C1579      C1580   1.206       .  T
C1581      C1582   1.200       .  T
C1583      C1584   1.345       .  D
C1583      H1585   1.086       .  S
C1584      H1586   1.085       .  S
C1587      C1588   1.203       .  T
C1589      C1590   1.206       .  T
C1591      C1592   1.203       .  T
C1593      C1594   1.344       .  D
C1593      H1595   1.086       .  S
C1594      H1596   1.087       .  S
C1597      C1598   1.203       .  T
C1599      C1600   1.203       .  T
C1601      C1602   1.205       .  T
C1603      C1604   1.204       .  T
C1605      C1606   1.203       .  T
C1607      C1608   1.208       .  T
O1609      C1624   1.265       .  A
O1609     Al1617   1.933       .  S
C1610      O1620   1.268       .  A
C1610      O1611   1.255       .  A
C1610      C2401   1.436       .  S
O1611     Al1613   1.876       .  S
O1612      C1614   1.264       .  A
O1612     Al1613   1.933       .  S
Al1613     O1621   1.932       .  S
Al1613     O1623   1.890       .  S
Al1613     O1622   1.782       .  S
C1614      O1627   1.257       .  A
C1614      C2405   1.430       .  S
O1615      C1625   1.263       .  A
O1615     Al1617   1.937       .  S
O1616      C1629   1.269       .  A
O1616     Al1626   1.944       .  S
Al1617     O1630   1.886       .  S
Al1617     O1627   1.882       .  S
Al1617     O1622   1.782       .  S
O1618      C1625   1.254       .  A
O1618     Al1626   1.879       .  S
O1619      C1628   1.256       .  A
O1619     Al1626   1.888       .  S
O1620     Al1626   1.946       .  S
O1621      C1628   1.264       .  A
O1622     Al1626   1.780       .  S
O1623      C1624   1.258       .  A
C1624      C2412   1.435       .  S
C1625      C2404   1.434       .  S
C1628      C2409   1.437       .  S
C1629      O1630   1.258       .  A
C1629      C2407   1.440       .  S
C1631      C2393   1.439       .  S
C1631      C1632   1.403       .  A
C1631      C1636   1.398       .  A
C1632      C1633   1.407       .  A
C1632      H1637   1.084       .  S
C1633      C1634   1.415       .  A
C1633      C2397   1.495       .  S
C1634      C1635   1.403       .  A
C1634      H1638   1.082       .  S
C1635      C2395   1.443       .  S
C1635      C1636   1.396       .  A
C1636      H1639   1.085       .  S
C1640      C2391   1.445       .  S
C1640      C1641   1.401       .  A
C1640      C1645   1.412       .  A
C1641      C1642   1.394       .  A
C1641      H1646   1.085       .  S
C1642      C2406   1.435       .  S
C1642      C1643   1.394       .  A
C1643      C1644   1.402       .  A
C1643      H1647   1.085       .  S
C1644      C1645   1.415       .  A
C1644      C2398   1.486       .  S
C1645      H1648   1.083       .  S
C1649      C2384   1.443       .  S
C1649      C1650   1.411       .  A
C1649      C1654   1.400       .  A
C1650      C1651   1.415       .  A
C1650      H1655   1.083       .  S
C1651      C1652   1.404       .  A
C1651      C2388   1.487       .  S
C1652      C1653   1.395       .  A
C1652      H1656   1.085       .  S
C1653      C2385   1.437       .  S
C1653      C1654   1.393       .  A
C1654      H1657   1.085       .  S
C1658      C2381   1.445       .  S
C1658      C1663   1.412       .  A
C1659      C1660   1.395       .  A
C1660      C2402   1.443       .  S
C1660      C1661   1.403       .  A
C1661      C1662   1.414       .  A
C1661      H1665   1.082       .  S
C1662      C2387   1.495       .  S
C1663      H1666   1.083       .  S
C1667      C2375   1.445       .  S
C1667      C2472   1.401   1_545  A
C1667      C1672   1.410       .  A
C1668      C2471   1.399       .  A
C1668      C1669   1.395       .  A
C1668      H1673   1.085       .  S
C1669      C2403   1.440       .  S
C1669      C1670   1.400       .  A
C1670      C1671   1.412       .  A
C1670      H1674   1.083       .  S
C1671      C2476   1.407       .  A
C1671      C2378   1.492       .  S
C1672      C2475   1.415   1_545  A
C1672      H1675   1.082       .  S
C1676      C2371   1.442       .  S
C1676      C1677   1.410       .  A
C1676      C1681   1.401       .  A
C1677      C1678   1.413       .  A
C1677      H1682   1.083       .  S
C1678      C1679   1.402       .  A
C1678      C2377   1.483       .  S
C1679      C1680   1.393       .  A
C1679      H1683   1.085       .  S
C1680      C2373   1.435       .  S
C1680      C1681   1.394       .  A
C1681      H1684   1.085       .  S
O1685      C1700   1.269       .  A
O1685     Al1693   1.944       .  S
C1686      O1696   1.265       .  A
C1686      O1687   1.257       .  A
C1686      C2386   1.431       .  S
O1687     Al1689   1.880       .  S
O1688      C1690   1.261       .  A
O1688     Al1689   1.927       .  S
Al1689     O1697   1.924       .  S
Al1689     O1699   1.887       .  S
Al1689     O1698   1.783       .  S
C1690      O1703   1.255       .  A
C1690      C2374   1.429       .  S
O1691      C1701   1.267       .  A
O1691     Al1693   1.947       .  S
O1692      C1705   1.265       .  A
O1692     Al1702   1.933       .  S
Al1693     O1706   1.891       .  S
Al1693     O1703   1.881       .  S
Al1693     O1698   1.780       .  S
O1694      C1701   1.254       .  A
O1694     Al1702   1.875       .  S
O1695      C1704   1.257       .  A
O1695     Al1702   1.887       .  S
O1696     Al1702   1.937       .  S
O1697      C1704   1.263       .  A
O1698     Al1702   1.781       .  S
O1699      C1700   1.258       .  A
C1700      C2367   1.440       .  S
C1701      C2396   1.437       .  S
C1704      C2370   1.430       .  S
C1705      O1706   1.257       .  A
C1705      C2366   1.439       .  S
C1707      C2365   1.444       .  S
C1707      C1708   1.411       .  A
C1707      C1712   1.401       .  A
C1708      C1709   1.414       .  A
C1708      H1713   1.083       .  S
C1709      C1710   1.402       .  A
C1709      C3165   1.486       .  S
C1710      C1711   1.393       .  A
C1710      H1714   1.085       .  S
C1711      C2360   1.436       .  S
C1711      C1712   1.395       .  A
C1712      H1715   1.085       .  S
C1716      C2356   1.437       .  S
C1716      C1717   1.398       .  A
C1716      C1721   1.402       .  A
C1717      C1718   1.395       .  A
C1717      H1722   1.085       .  S
C1718      C2358   1.441       .  S
C1718      C1719   1.402       .  A
C1719      C1720   1.411       .  A
C1719      H1723   1.083       .  S
C1720      C1721   1.407       .  A
C1720      C2362   1.487       .  S
C1721      H1724   1.084       .  S
O1725      C1740   1.256       .  A
O1725     Al1733   1.879       .  S
C1726      O1736   1.256       .  A
C1726      O1727   1.267       .  A
C1726      C2348   1.431       .  S
O1727     Al2533   1.940   1_545  S
O1728      C1730   1.254   1_455  A
Al1729     O2531   1.941       .  S
Al1729     O2541   1.886       .  S
C1730      O1743   1.265       .  A
C1730      C2346   1.431       .  S
O1731      C1741   1.255       .  A
O1731     Al2537   1.877   1_545  S
O1732      C1745   1.256   1_455  A
Al1733     O2535   1.874       .  S
Al1733     O2550   1.937       .  S
Al1733     O1743   1.939       .  S
Al1733     O2542   1.779       .  S
O1734      C1741   1.266       .  A
O1735      C1744   1.263       .  A
O1735     Al1742   1.927       .  S
O1736     Al1742   1.876       .  S
O1737      C1744   1.255   1_565  A
O1737     Al2533   1.883       .  S
O1738     Al2537   1.781   1_545  S
O1739      C1740   1.266       .  A
C1740      C2350   1.432       .  S
C1741      C2357   1.435       .  S
C1744      C2351   1.430       .  S
C1745      O1746   1.265       .  A
C1745      C2353   1.436       .  S
O1746     Al2537   1.933   1_545  S
C1747      C1748   1.406       .  A
C1747      C1752   1.412       .  A
C1747      C2342   1.486       .  S
C1748      C1749   1.401       .  A
C1748      H1753   1.084       .  S
C1749      C2369   1.437       .  S
C1749      C1750   1.397       .  A
C1750      C1751   1.395       .  A
C1750      H1754   1.085       .  S
C1751      C2340   1.440       .  S
C1751      C1752   1.402       .  A
C1752      H1755   1.083       .  S
C1756      C2337   1.438       .  S
C1756      C1757   1.399       .  A
C1756      C1761   1.404       .  A
C1757      C1758   1.395       .  A
C1757      H1762   1.085       .  S
C1758      C2347   1.437       .  S
C1758      C1759   1.399       .  A
C1759      C1760   1.403       .  A
C1759      H1763   1.084       .  S
C1760      C1761   1.406       .  A
C1760      C2341   1.473       .  S
C1761      H1764   1.084       .  S
C1765      C2368   1.445       .  S
C1765      C1766   1.413       .  A
C1765      C1770   1.400       .  A
C1766      C1767   1.415       .  A
C1766      H1771   1.083       .  S
C1767      C1768   1.405       .  A
C1767      C2334   1.489       .  S
C1768      C1769   1.395       .  A
C1768      H1772   1.085       .  S
C1769      C2331   1.438       .  S
C1769      C1770   1.393       .  A
C1770      H1773   1.085       .  S
C1774      C2329   1.440       .  S
C1774      C1775   1.396       .  A
C1774      C1779   1.408       .  A
C1775      C1776   1.392       .  A
C1775      H1780   1.085       .  S
C1776      C2345   1.438       .  S
C1776      C1777   1.400       .  A
C1777      C1778   1.413       .  A
C1777      H1781   1.083       .  S
C1778      C1779   1.411       .  A
C1779      H1782   1.084       .  S
O1783      C1798   1.258       .  A
O1783     Al1791   1.886       .  S
C1784      O1794   1.255       .  A
C1784      O1785   1.266       .  A
C1784      C2339   1.434       .  S
O1786      C2592   1.254       .  A
O1786     Al1787   1.875   1_565  S
Al1787     O1795   1.880       .  S
Al1787     O2601   1.932   1_545  S
Al1787     O2600   1.778   1_545  S
C1788      O2590   1.256       .  A
C1788      O1801   1.263       .  A
C1788      C2359   1.430       .  S
O1789     Al1791   1.877   1_455  S
O1790      C1803   1.257       .  A
O1790     Al2604   1.890       .  S
Al1791     O1801   1.934       .  S
Al1791     O1796   1.781   1_655  S
O1792      C1799   1.265       .  A
O1792     Al2604   1.938       .  S
O1793      C1802   1.264       .  A
O1793     Al1800   1.933       .  S
O1794     Al1800   1.875       .  S
O1796     Al2591   1.780   1_455  S
O1797      C1798   1.265       .  A
O1797     Al2591   1.932       .  S
C1798      C2394   1.432       .  S
C1799      C2332   1.432       .  S
Al1800     O2594   1.890       .  S
Al1800     O2596   1.932   1_545  S
C1802      C2383   1.438       .  S
C1803      O1804   1.265       .  A
C1803      C2372   1.437       .  S
O1805      C1820   1.268       .  A
O1805     Al1813   1.944       .  S
C1806      O1816   1.264       .  A
C1806      O1807   1.256       .  A
C1806      C2319   1.431       .  S
O1807     Al1809   1.880   1_554  S
O1808      C1810   1.263       .  A
O1808     Al1809   1.932   1_554  S
Al1809     O1817   1.928       .  S
Al1809     O1819   1.888       .  S
Al1809     O1818   1.782       .  S
C1810      O1823   1.255       .  A
C1810      C2318   1.430       .  S
O1811      C1821   1.267       .  A
O1811     Al1813   1.946   1_554  S
O1812      C1825   1.265       .  A
O1812     Al1822   1.932       .  S
Al1813     O1826   1.889       .  S
Al1813     O1823   1.879   1_556  S
Al1813     O1818   1.780       .  S
O1814      C1821   1.254       .  A
O1814     Al1822   1.876   1_554  S
O1815      C1824   1.257       .  A
O1815     Al1822   1.888       .  S
O1816     Al1822   1.935   1_554  S
O1817      C1824   1.264       .  A
O1818     Al1822   1.781       .  S
O1819      C1820   1.258       .  A
C1820      C2327   1.440       .  S
C1821      C2321   1.436       .  S
C1824      C2325   1.433       .  S
C1825      O1826   1.257       .  A
C1825      C2323   1.437       .  S
C1827      C2311   1.441       .  S
C1827      C1828   1.401       .  A
C1827      C1832   1.409       .  A
C1828      C1829   1.394       .  A
C1828      H1833   1.085       .  S
C1829      C2317   1.436       .  S
C1829      C1830   1.394       .  A
C1830      C1831   1.403       .  A
C1830      H1834   1.085       .  S
C1831      C1832   1.413       .  A
C1831      C2313   1.484       .  S
C1832      H1835   1.083       .  S
C1836      C2349   1.438       .  S
C1836      C1837   1.406       .  A
C1836      C1841   1.397       .  A
C1837      C1838   1.408       .  A
C1837      H1842   1.084       .  S
C1838      C1839   1.412       .  A
C1838      C2314   1.491       .  S
C1839      C1840   1.398       .  A
C1839      H1843   1.083       .  S
C1840      C2310   1.437       .  S
C1840      C1841   1.393       .  A
C1841      H1844   1.085       .  S
C1845      C1846   1.403       .  A
C1845      C2654   1.414   1_545  A
C1845      C2306   1.484       .  S
C1846      C1847   1.395       .  A
C1846      H1851   1.085       .  S
C1847      C2320   1.437       .  S
C1847      C1848   1.394       .  A
C1848      C2653   1.400   1_545  A
C1848      H1852   1.085   1_545  S
C1849      C2303   1.440       .  S
C1849      C2652   1.399       .  A
C1849      C1850   1.404       .  A
C1850      C2649   1.408       .  A
C1850      H1853   1.084       .  S
C1854      C2352   1.436       .  S
C1854      C1855   1.403       .  A
C1854      C1859   1.397       .  A
C1855      C1856   1.407       .  A
C1855      H1860   1.084       .  S
C1856      C1857   1.413       .  A
C1856      C2305   1.491       .  S
C1857      C1858   1.401       .  A
C1857      H1861   1.083       .  S
C1858      C2302   1.440       .  S
C1858      C1859   1.394       .  A
C1859      H1862   1.085       .  S
C1863      C2295   1.442       .  S
C1863      C1868   1.410       .  A
C1864      C1865   1.396       .  A
C1864      H1869   1.085       .  S
C1865      C2322   1.442       .  S
C1865      C1866   1.402       .  A
C1866      C1867   1.414       .  A
C1866      H1870   1.082       .  S
C1867      C2298   1.491       .  S
C1868      H1871   1.083       .  S
C1872      C2354   1.440       .  S
C1872      C1873   1.410       .  A
C1872      C1877   1.399       .  A
C1873      C1874   1.414       .  A
C1873      H1878   1.083       .  S
C1874      C1875   1.402       .  A
C1874      C2297   1.484       .  S
C1875      C1876   1.393       .  A
C1875      H1879   1.085       .  S
C1876      C2294   1.431       .  S
C1876      C1877   1.392       .  A
C1877      H1880   1.085       .  S
O1881      C1896   1.265       .  A
O1881     Al1889   1.930       .  S
C1882      O1892   1.267       .  A
C1882      O1883   1.255       .  A
C1882      C2301   1.433       .  S
O1883     Al1885   1.874       .  S
O1884      C1886   1.263       .  A
O1884     Al1885   1.929       .  S
Al1885     O1893   1.924       .  S
Al1885     O1895   1.886       .  S
Al1885     O1894   1.780       .  S
C1886      O1899   1.256       .  A
C1886      C2293   1.425       .  S
O1887      C1897   1.263       .  A
O1887     Al1889   1.934       .  S
O1888      C1901   1.268       .  A
O1888     Al1898   1.942       .  S
Al1889     O1902   1.877       .  S
Al1889     O1899   1.877       .  S
Al1889     O1894   1.780       .  S
O1890      C1897   1.253       .  A
O1890     Al1898   1.877       .  S
O1891      C1900   1.255       .  A
O1891     Al1898   1.886       .  S
O1892     Al1898   1.943       .  S
O1893      C1900   1.262       .  A
O1894     Al1898   1.779       .  S
O1895      C1896   1.257       .  A
C1896      C2355   1.431       .  S
C1897      C2309   1.431       .  S
C1900      C2338   1.432       .  S
C1901      O1902   1.256       .  A
C1901      C2330   1.434       .  S
O1903      C1918   1.257       .  A
O1903     Al1911   1.890       .  S
C1904      O1914   1.256       .  A
C1904      O1905   1.264       .  A
C1904      C2287   1.431       .  S
O1905     Al1907   1.935   1_556  S
O1906      C1908   1.255       .  A
O1906     Al1907   1.877   1_556  S
Al1907     O1915   1.887       .  S
Al1907     O1917   1.932       .  S
Al1907     O1916   1.781       .  S
C1908      O1921   1.265       .  A
C1908      C2292   1.432       .  S
O1909      C1919   1.255       .  A
O1909     Al1911   1.880   1_556  S
O1910      C1923   1.258       .  A
O1910     Al1920   1.888       .  S
Al1911     O1924   1.933       .  S
Al1911     O1921   1.937   1_554  S
Al1911     O1916   1.781       .  S
O1912      C1919   1.263       .  A
O1912     Al1920   1.932   1_556  S
O1913      C1922   1.264       .  A
O1913     Al1920   1.930       .  S
O1914     Al1920   1.880   1_556  S
O1915      C1922   1.257       .  A
O1916     Al1920   1.783       .  S
O1917      C1918   1.265       .  A
C1918      C2296   1.437       .  S
C1919      C2289   1.431       .  S
C1922      C2304   1.433       .  S
C1923      O1924   1.266       .  A
C1923      C2312   1.435       .  S
C1925      C2280   1.441       .  S
C1925      C1926   1.407       .  A
C1925      C1930   1.398       .  A
C1926      C1927   1.410       .  A
C1926      H1931   1.084       .  S
C1927      C1928   1.413       .  A
C1927      C2283   1.496       .  S
C1928      C1929   1.401       .  A
C1928      H1932   1.083       .  S
C1929      C2282   1.441       .  S
C1929      C1930   1.394       .  A
C1930      H1933   1.085       .  S
C1934      C2328   1.445       .  S
C1934      C1935   1.401       .  A
C1934      C1939   1.413       .  A
C1935      C1936   1.394       .  A
C1935      H1940   1.085       .  S
C1936      C2290   1.437       .  S
C1936      C1937   1.394       .  A
C1937      C1938   1.403       .  A
C1937      H1941   1.085       .  S
C1938      C1939   1.415       .  A
C1938      C2284   1.487       .  S
C1939      H1942   1.083       .  S
C1943      C2272   1.441       .  S
C1943      C1944   1.407       .  A
C1943      C1948   1.397       .  A
C1944      C1945   1.411       .  A
C1944      H1949   1.084       .  S
C1945      C1946   1.414       .  A
C1945      C2276   1.498       .  S
C1946      C1947   1.401       .  A
C1946      H1950   1.082       .  S
C1947      C2273   1.441       .  S
C1947      C1948   1.394       .  A
C1948      H1951   1.085       .  S
C1952      C2326   1.438       .  S
C1952      C2757   1.400       .  A
C1952      C1957   1.407       .  A
C1953      C2756   1.400       .  A
C1953      C1954   1.393       .  A
C1953      H2762   1.085       .  S
C1954      C2288   1.437       .  S
C1954      C1955   1.395       .  A
C1955      C1956   1.404       .  A
C1955      H1959   1.085       .  S
C1956      C2761   1.416       .  A
C1956      C2275   1.488       .  S
C1957      C2760   1.411   1_545  A
C1957      H1960   1.083       .  S
H1958      C2757   1.085       .  S
C1961      C2263   1.439       .  S
C1961      C1962   1.405       .  A
C1961      C1966   1.397       .  A
C1962      C1963   1.410       .  A
C1962      H1967   1.084       .  S
C1963      C1964   1.417       .  A
C1963      C2267   1.501       .  S
C1964      C1965   1.402       .  A
C1964      H1968   1.078       .  S
C1965      C2266   1.442       .  S
C1965      C1966   1.394       .  A
C1966      H1969   1.085       .  S
C1970      C2324   1.442       .  S
C1970      C1975   1.407       .  A
C1971      C1972   1.396       .  A
C1971      H1976   1.085       .  S
C1972      C2291   1.438       .  S
C1972      C1973   1.396       .  A
C1973      C1974   1.402       .  A
C1973      H1977   1.085       .  S
C1974      C2268   1.480       .  S
C1975      H1978   1.084       .  S
O1979      C1994   1.257       .  A
O1979     Al1987   1.881       .  S
C1980      O1990   1.254       .  A
C1980      O1981   1.266       .  A
C1980      C2274   1.434       .  S
O1981     Al1983   1.943       .  S
O1982      C1984   1.254       .  A
O1982     Al1983   1.878       .  S
Al1983     O1991   1.884       .  S
Al1983     O1993   1.940       .  S
Al1983     O1992   1.780       .  S
C1984      O1997   1.266       .  A
C1984      C2281   1.435       .  S
O1985      C1995   1.255       .  A
O1985     Al1987   1.876       .  S
O1986      C1999   1.256       .  A
O1986     Al1996   1.888       .  S
Al1987     O2000   1.941       .  S
Al1987     O1997   1.945       .  S
Al1987     O1992   1.780       .  S
O1988      C1995   1.268       .  A
O1988     Al1996   1.949       .  S
O1989      C1998   1.268       .  A
O1989     Al1996   1.948       .  S
O1990     Al1996   1.874       .  S
O1991      C1998   1.255       .  A
O1992     Al1996   1.779       .  S
O1993      C1994   1.267       .  A
C1994      C2261   1.434       .  S
C1995      C2265   1.435       .  S
C1998      C2258   1.442       .  S
C1999      O2000   1.267       .  A
C1999      C2260   1.439       .  S
C2001      C2250   1.442       .  S
C2001      C2002   1.411       .  A
C2001      C2006   1.400       .  A
C2002      C2003   1.414       .  A
C2002      H2007   1.083       .  S
C2003      C2004   1.403       .  A
C2003      C2253   1.485       .  S
C2004      C2005   1.393       .  A
C2004      H2008   1.085       .  S
C2005      C2252   1.435       .  S
C2005      C2006   1.393       .  A
C2006      H2009   1.085       .  S
C2010      C2262   1.439       .  S
C2010      C2011   1.407       .  A
C2010      C2015   1.397       .  A
C2011      C2012   1.410       .  A
C2011      H2016   1.084       .  S
C2012      C2013   1.412       .  A
C2013      C2014   1.399       .  A
C2013      H2017   1.083       .  S
C2014      C2248   1.437       .  S
C2014      C2015   1.393       .  A
C2015      H2018   1.085       .  S
O2019      C2034   1.267       .  A
O2019     Al2831   1.939   1_545  S
C2020      O2030   1.264       .  A
C2020      O2021   1.257       .  A
C2020      C2251   1.429       .  S
O2022      C2024   1.264       .  A
O2022     Al2023   1.933       .  S
Al2023     O2031   1.930       .  S
Al2023     O2033   1.891       .  S
C2024      O2037   1.256       .  A
C2024      C2238   1.431       .  S
O2025      C2035   1.266       .  A
O2026      C2039   1.264       .  A
O2026     Al2036   1.927       .  S
Al2027     O2823   1.937       .  S
Al2027     O2841   1.876       .  S
O2028      C2035   1.254       .  A
O2028     Al2036   1.876       .  S
O2029      C2038   1.257   1_565  A
O2029     Al2840   1.886       .  S
O2030     Al2840   1.935   1_545  S
O2032     Al2840   1.781   1_445  S
O2033      C2034   1.258       .  A
C2034      C2244   1.441       .  S
C2035      C2240   1.435       .  S
Al2036     O2833   1.887       .  S
Al2036     O2834   1.929       .  S
Al2036     O2836   1.780       .  S
O2037     Al2831   1.880   1_545  S
C2038      C2241   1.435       .  S
C2039      O2040   1.255   1_655  A
C2039      C2246   1.431       .  S
C2041      C2257   1.446       .  S
C2041      C2042   1.416       .  A
C2041      C2046   1.400       .  A
C2042      C2043   1.417       .  A
C2042      H2047   1.083       .  S
C2043      C2044   1.404       .  A
C2043      C2234   1.489       .  S
C2044      C2045   1.394       .  A
C2044      H2048   1.085       .  S
C2045      C2231   1.436       .  S
C2045      C2046   1.392       .  A
C2046      H2049   1.085       .  S
C2050      C2229   1.444       .  S
C2050      C2051   1.397       .  A
C2050      C2055   1.409       .  A
C2051      C2052   1.394       .  A
C2051      H2056   1.085       .  S
C2052      C2239   1.441       .  S
C2052      C2053   1.401       .  A
C2053      C2054   1.414       .  A
C2053      H2057   1.082       .  S
C2054      C2055   1.413       .  A
C2054      C2233   1.501       .  S
C2055      H2058   1.084       .  S
C2059      C2259   1.444       .  S
C2059      C2060   1.412       .  A
C2059      C2064   1.401       .  A
C2060      C2061   1.414       .  A
C2060      H2065   1.083       .  S
C2061      C2062   1.402       .  A
C2061      C2225   1.484       .  S
C2062      C2063   1.392       .  A
C2062      H2066   1.085       .  S
C2063      C2223   1.435       .  S
C2063      C2064   1.394       .  A
C2064      H2067   1.085       .  S
C2068      C2222   1.444       .  S
C2068      C2069   1.401       .  A
C2068      C2073   1.410       .  A
C2069      C2070   1.395       .  A
C2069      H2074   1.085       .  S
C2070      C2237   1.436       .  S
C2070      C2071   1.394       .  A
C2071      C2072   1.403       .  A
C2071      H2075   1.085       .  S
C2072      C2073   1.414       .  A
C2072      C3030   1.485       .  S
C2073      H2076   1.083       .  S
O2077      C2092   1.267       .  A
C2078      O2079   1.256       .  A
C2078      C2224   1.429       .  S
O2079     Al2885   1.883       .  S
O2080      C2082   1.266       .  A
O2080     Al2081   1.940       .  S
Al2081     O2883   1.872       .  S
Al2081     O2089   1.937   1_545  S
Al2081     O2091   1.882       .  S
C2082      O2095   1.255       .  A
C2082      C2247   1.430       .  S
O2083      C2093   1.265       .  A
O2083     Al2889   1.938       .  S
O2084      C2097   1.266       .  A
O2084     Al2094   1.940       .  S
Al2085     O2887   1.940   1_545  S
Al2085     O2902   1.878       .  S
Al2085     O2090   1.777       .  S
O2086      C2093   1.256       .  A
O2086     Al2094   1.878       .  S
O2087      C2096   1.258       .  A
O2088     Al2094   1.942   1_455  S
O2089      C2900   1.266       .  A
O2090     Al2898   1.780   1_545  S
O2091      C2092   1.256       .  A
C2092      C2279   1.435       .  S
C2093      C2232   1.430       .  S
Al2094     O2894   1.780   1_655  S
C2096      O2893   1.267       .  A
C2096      C2264   1.433       .  S
C2097      O2098   1.256       .  A
C2097      C2271   1.436       .  S
O2098     Al2889   1.884       .  S
O2099      C2114   1.258       .  A
O2099     Al2107   1.893       .  S
C2100      O2110   1.255       .  A
C2100      O2101   1.264       .  A
C2100      C2219   1.434       .  S
O2101     Al2103   1.937       .  S
O2102      C2104   1.256       .  A
O2102     Al2103   1.878       .  S
Al2103     O2111   1.889       .  S
Al2103     O2113   1.934       .  S
Al2103     O2112   1.782       .  S
C2104      O2117   1.265       .  A
C2104      C2217   1.432       .  S
O2105      C2115   1.255       .  A
O2105     Al2107   1.879       .  S
O2106      C2119   1.257       .  A
O2106     Al2116   1.890       .  S
Al2107     O2120   1.936       .  S
Al2107     O2117   1.939       .  S
Al2107     O2112   1.783       .  S
O2108      C2115   1.267       .  A
O2108     Al2116   1.946       .  S
O2109      C2118   1.268       .  A
O2109     Al2116   1.944       .  S
O2110     Al2116   1.881       .  S
O2111      C2118   1.258       .  A
O2112     Al2116   1.782       .  S
O2113      C2114   1.265       .  A
C2114      C2376   1.439       .  S
C2115      C2215   1.439       .  S
C2118      C2382   1.440       .  S
C2119      O2120   1.266       .  A
C2119      C2392   1.440       .  S
C2121      C2411   1.441       .  S
C2121      C2122   1.399       .  A
C2121      C2126   1.404       .  A
C2122      C2123   1.396       .  A
C2122      H2127   1.085       .  S
C2123      C2216   1.445       .  S
C2123      C2124   1.404       .  A
C2124      C2125   1.416       .  A
C2124      H2128   1.081       .  S
C2125      C2126   1.409       .  A
C2125      C2211   1.499       .  S
C2126      H2129   1.084       .  S
C2130      C2243   1.446       .  S
C2130      C2131   1.412       .  A
C2130      C2135   1.401       .  A
C2131      C2132   1.415       .  A
C2131      H2136   1.083       .  S
C2132      C2133   1.403       .  A
C2132      C2212   1.486       .  S
C2133      C2134   1.395       .  A
C2133      H2137   1.085       .  S
C2134      C2210   1.437       .  S
C2134      C2135   1.394       .  A
C2135      H2138   1.085       .  S
C2139      C2410   1.443       .  S
C2139      C2144   1.410       .  A
C2140      C2141   1.396       .  A
C2140      H2145   1.085   1_655  S
C2141      C2220   1.439       .  S
C2141      C2142   1.395       .  A
C2142      C2143   1.403       .  A
C2142      H2146   1.085       .  S
C2143      C2205   1.485       .  S
C2144      H2147   1.083       .  S
C2148      C2245   1.437       .  S
C2148      C2149   1.404       .  A
C2148      C2153   1.397       .  A
C2149      C2150   1.408       .  A
C2149      H2154   1.084       .  S
C2150      C2151   1.413       .  A
C2150      C2206   1.492       .  S
C2151      C2152   1.401       .  A
C2151      H2155   1.083       .  S
C2152      C2203   1.440       .  S
C2152      C2153   1.394       .  A
C2153      H2156   1.085       .  S
C2157      C2408   1.445       .  S
C2157      C2962   1.400       .  A
C2157      C2162   1.413       .  A
C2158      C2961   1.400   1_545  A
C2158      C2159   1.394       .  A
C2158      H2163   1.085   1_545  S
C2159      C2218   1.438       .  S
C2159      C2160   1.396       .  A
C2160      C2161   1.405       .  A
C2160      H2164   1.085       .  S
C2161      C2966   1.416   1_545  A
C2161      C2200   1.489       .  S
C2162      C2965   1.416       .  A
C2162      H2165   1.083       .  S
C2166      C2242   1.441       .  S
C2166      C2167   1.405       .  A
C2166      C2171   1.398       .  A
C2167      C2168   1.409       .  A
C2167      H2172   1.084       .  S
C2168      C2169   1.414       .  A
C2168      C2199   1.496       .  S
C2169      C2170   1.403       .  A
C2169      H2173   1.083       .  S
C2170      C2197   1.443       .  S
C2170      C2171   1.396       .  A
C2171      H2174   1.085       .  S
O2175      C2190   1.258       .  A
O2175     Al2183   1.891       .  S
C2176      O2186   1.254       .  A
C2176      O2177   1.265       .  A
C2176      C2204   1.434       .  S
O2177     Al2179   1.942       .  S
O2178      C2180   1.256       .  A
O2178     Al2179   1.877       .  S
Al2179     O2187   1.882       .  S
Al2179     O2189   1.938       .  S
Al2179     O2188   1.780       .  S
C2180      O2193   1.265       .  A
C2180      C2209   1.431       .  S
O2181      C2191   1.255       .  A
O2181     Al2183   1.878       .  S
O2182      C2195   1.256       .  A
O2182     Al2192   1.886       .  S
Al2183     O2196   1.937       .  S
Al2183     O2193   1.938       .  S
Al2183     O2188   1.781       .  S
O2184      C2191   1.267       .  A
O2184     Al2192   1.946       .  S
O2185      C2194   1.268       .  A
O2185     Al2192   1.946       .  S
O2186     Al2192   1.876       .  S
O2187      C2194   1.256       .  A
O2188     Al2192   1.780       .  S
O2189      C2190   1.266       .  A
C2190      C2221   1.439       .  S
C2191      C2198   1.437       .  S
C2194      C2230   1.438       .  S
C2195      O2196   1.266       .  A
C2195      C2249   1.437       .  S
C2197      C2198   1.207       .  T
C2199      C2200   1.347       .  D
C2199      H2201   1.086       .  S
C2200      H2202   1.085       .  S
C2203      C2204   1.206       .  T
C2205      C2206   1.346       .  D
C2205      H2207   1.085       .  S
C2206      H2208   1.086       .  S
C2209      C2210   1.204       .  T
C2211      C2212   1.347       .  D
C2211      H2213   1.086       .  S
C2212      H2214   1.083       .  S
C2215      C2216   1.209       .  T
C2217      C2218   1.204       .  T
C2219      C2220   1.205       .  T
C2221      C2222   1.208       .  T
C2223      C2224   1.202       .  T
C2225      C2226   1.346       .  D
C2225      H2227   1.085       .  S
C2226      C2876   1.495       .  S
C2226      H3032   1.086       .  S
H2228      C3030   1.085       .  S
C2229      C2230   1.208       .  T
C2231      C2232   1.203       .  T
C2233      C2234   1.349       .  D
C2233      H2235   1.086       .  S
C2234      H2236   1.084       .  S
C2237      C2238   1.203       .  T
C2239      C2240   1.206       .  T
C2241      C2242   1.206       .  T
C2243      C2244   1.210       .  T
C2245      C2246   1.204       .  T
C2247      C2248   1.203       .  T
C2249      C2250   1.208       .  T
C2251      C2252   1.203       .  T
C2253      C2254   1.347   1_655  D
C2253      H2255   1.085       .  S
C2254      H2256   1.086   1_455  S
C2257      C2258   1.210       .  T
C2259      C2260   1.209       .  T
C2261      C2262   1.205       .  T
C2263      C2264   1.205       .  T
C2265      C2266   1.206       .  T
C2267      C2268   1.348       .  D
C2267      H2269   1.087       .  S
C2268      H2270   1.080       .  S
C2271      C2272   1.207       .  T
C2273      C2274   1.206       .  T
C2275      C2276   1.348       .  D
C2275      H2277   1.085       .  S
C2276      H2278   1.086       .  S
C2279      C2280   1.206       .  T
C2281      C2282   1.206       .  T
C2283      C2284   1.347       .  D
C2283      H2285   1.086       .  S
C2284      H2286   1.085       .  S
C2287      C2288   1.204       .  T
C2289      C2290   1.204       .  T
C2291      C2292   1.205       .  T
C2293      C2294   1.200       .  T
C2295      C2296   1.208       .  T
C2297      C2298   1.344       .  D
C2297      H2299   1.085       .  S
C2298      H2300   1.086       .  S
C2301      C2302   1.205       .  T
C2303      C2304   1.205       .  T
C2305      C2306   1.345       .  D
C2305      H2307   1.086       .  S
C2306      H2308   1.086       .  S
C2309      C2310   1.204       .  T
C2311      C2312   1.206       .  T
C2313      C2314   1.346       .  D
C2313      H2315   1.086       .  S
C2314      H2316   1.086       .  S
C2317      C2318   1.203       .  T
C2319      C2320   1.204       .  T
C2321      C2322   1.207       .  T
C2323      C2324   1.207       .  T
C2325      C2326   1.205       .  T
C2327      C2328   1.209       .  T
C2329      C2330   1.206       .  T
C2331      C2332   1.204       .  T
C2333      C2334   1.349       .  D
C2334      H2336   1.085       .  S
C2337      C2338   1.205       .  T
C2339      C2340   1.205       .  T
C2341      C2342   1.344       .  D
C2341      H2343   1.084       .  S
C2342      H2344   1.087       .  S
C2345      C2346   1.204       .  T
C2347      C2348   1.204       .  T
C2349      C2350   1.205       .  T
C2351      C2352   1.203       .  T
C2353      C2354   1.206       .  T
C2355      C2356   1.204       .  T
C2357      C2358   1.206       .  T
C2359      C2360   1.203       .  T
C2361      C2513   1.474       .  S
C2361      C2362   1.344   1_565  D
C2361      H2363   1.085       .  S
C2362      H2364   1.087       .  S
C2365      C2366   1.209       .  T
C2367      C2368   1.209       .  T
C2369      C2370   1.204       .  T
C2371      C2372   1.207       .  T
C2373      C2374   1.203       .  T
C2375      C2376   1.209       .  T
C2377      C2378   1.345       .  D
C2377      H2379   1.085       .  S
C2378      H2380   1.086       .  S
C2381      C2382   1.209       .  T
C2383      C2384   1.208       .  T
C2385      C2386   1.204       .  T
C2387      C2388   1.347       .  D
C2387      H2389   1.086       .  S
C2388      H2390   1.085       .  S
C2391      C2392   1.209       .  T
C2393      C2394   1.205       .  T
C2395      C2396   1.208       .  T
C2397      C2398   1.346       .  D
C2397      H2399   1.086       .  S
C2398      H2400   1.085       .  S
C2401      C2402   1.207       .  T
C2403      C2404   1.206       .  T
C2405      C2406   1.203       .  T
C2407      C2408   1.209       .  T
C2409      C2410   1.208       .  T
C2411      C2412   1.206       .  T
O2413      C2428   1.267       .  A
O2413     Al2421   1.938       .  S
C2414      O2424   1.266       .  A
C2414      O2415   1.255       .  A
C2414      C3205   1.435       .  S
O2415     Al2417   1.877       .  S
O2416      C2418   1.263       .  A
O2416     Al2417   1.930       .  S
Al2417     O2425   1.928       .  S
Al2417     O2427   1.886       .  S
Al2417     O2426   1.782       .  S
C2418      O2431   1.256       .  A
C2418      C3209   1.429       .  S
O2419      C2429   1.265       .  A
O2419     Al2421   1.942       .  S
O2420      C2433   1.267       .  A
O2420     Al2430   1.940       .  S
Al2421     O2434   1.890       .  S
Al2421     O2431   1.878       .  S
Al2421     O2426   1.780       .  S
O2422      C2429   1.255       .  A
O2422     Al2430   1.876       .  S
O2423      C2432   1.256       .  A
O2423     Al2430   1.883       .  S
O2424     Al2430   1.945       .  S
O2425      C2432   1.264       .  A
O2426     Al2430   1.778       .  S
O2427      C2428   1.257       .  A
C2428      C3216   1.436       .  S
C2429      C3208   1.433       .  S
C2432      C3213   1.430       .  S
C2433      O2434   1.258       .  A
C2433      C3211   1.440       .  S
C2435      C3197   1.437       .  S
C2435      C2436   1.404       .  A
C2435      C2440   1.397       .  A
C2436      C2437   1.408       .  A
C2436      H2441   1.084       .  S
C2437      C2438   1.413       .  A
C2437      C3201   1.491       .  S
C2438      C2439   1.401       .  A
C2438      H2442   1.082       .  S
C2439      C3199   1.439       .  S
C2439      C2440   1.394       .  A
C2440      H2443   1.085       .  S
C2444      C3195   1.439       .  S
C2444      C2445   1.399       .  A
C2444      C2449   1.408       .  A
C2445      C2446   1.393       .  A
C2445      H2450   1.085       .  S
C2446      C3210   1.435       .  S
C2446      C2447   1.395       .  A
C2447      C2448   1.403       .  A
C2447      H2451   1.085       .  S
C2448      C2449   1.413       .  A
C2448      C3202   1.484       .  S
C2449      H2452   1.083       .  S
C2453      C3188   1.441       .  S
C2453      C2454   1.410       .  A
C2453      C2458   1.400       .  A
C2454      C2455   1.413       .  A
C2454      H2459   1.083       .  S
C2455      C2456   1.402       .  A
C2455      C3192   1.483       .  S
C2456      C2457   1.393       .  A
C2456      H2460   1.085       .  S
C2457      C3189   1.434       .  S
C2457      C2458   1.393       .  A
C2458      H2461   1.085       .  S
C2462      C3185   1.435       .  S
C2462      C2467   1.404       .  A
C2463      C2464   1.395       .  A
C2464      C3206   1.441       .  S
C2464      C2465   1.401       .  A
C2465      C2466   1.413       .  A
C2465      H2469   1.083       .  S
C2466      C3191   1.491       .  S
C2467      H2470   1.084       .  S
C2471      C3179   1.438       .  S
C2471      C2476   1.404       .  A
C2472      C2473   1.395       .  A
C2472      H2477   1.085   1_565  S
C2473      C3207   1.440       .  S
C2473      C2474   1.396       .  A
C2474      C2475   1.405       .  A
C2474      H2478   1.085       .  S
C2475      C3182   1.489       .  S
C2476      H2479   1.084       .  S
C2480      C3175   1.442       .  S
C2480      C2481   1.404       .  A
C2480      C2485   1.400       .  A
C2481      C2482   1.408       .  A
C2481      H2486   1.084       .  S
C2482      C2483   1.414       .  A
C2482      C3181   1.494       .  S
C2483      C2484   1.403       .  A
C2483      H2487   1.083       .  S
C2484      C3177   1.445       .  S
C2484      C2485   1.398       .  A
C2485      H2488   1.085       .  S
O2489      C2504   1.267       .  A
O2489     Al2497   1.938       .  S
C2490      O2500   1.263       .  A
C2490      O2491   1.256       .  A
C2490      C3190   1.429       .  S
O2491     Al2493   1.880       .  S
O2492      C2494   1.267       .  A
O2492     Al2493   1.949       .  S
Al2493     O2501   1.946       .  S
Al2493     O2503   1.887       .  S
Al2493     O2502   1.780       .  S
C2494      O2507   1.254       .  A
C2494      C3178   1.439       .  S
O2495      C2505   1.266       .  A
O2495     Al2497   1.942       .  S
O2496      C2509   1.264       .  A
O2496     Al2506   1.928       .  S
Al2497     O2510   1.887       .  S
Al2497     O2507   1.879       .  S
Al2497     O2502   1.780       .  S
O2498      C2505   1.255       .  A
O2498     Al2506   1.874       .  S
O2499      C2508   1.257       .  A
O2499     Al2506   1.886       .  S
O2500     Al2506   1.930       .  S
O2501      C2508   1.268       .  A
O2502     Al2506   1.781       .  S
O2503      C2504   1.257       .  A
C2504      C3171   1.438       .  S
C2505      C3200   1.432       .  S
C2508      C3174   1.440       .  S
C2509      O2510   1.256       .  A
C2509      C3170   1.434       .  S
C2511      C3169   1.439       .  S
C2511      C2512   1.405       .  A
C2511      C2516   1.399       .  A
C2512      C2513   1.407       .  A
C2512      H2517   1.084       .  S
C2513      C2514   1.403       .  A
C2514      C2515   1.399       .  A
C2514      H2518   1.084       .  S
C2515      C3164   1.437       .  S
C2515      C2516   1.396       .  A
C2516      H2519   1.085       .  S
C2520      C3160   1.436       .  S
C2520      C2521   1.397       .  A
C2520      C2525   1.404       .  A
C2521      C2522   1.393       .  A
C2521      H2526   1.085       .  S
C2522      C3162   1.439       .  S
C2522      C2523   1.401       .  A
C2523      C2524   1.413       .  A
C2523      H2527   1.082       .  S
C2524      C2525   1.407       .  A
C2524      C3166   1.493       .  S
C2525      H2528   1.084       .  S
O2529      C2544   1.257       .  A
O2529     Al2537   1.889       .  S
C2530      O2540   1.254       .  A
C2530      O2531   1.265       .  A
C2530      C3152   1.433       .  S
O2532      C2534   1.255       .  A
C2534      O2547   1.265       .  A
C2534      C3150   1.430       .  S
O2535      C2545   1.254       .  A
O2536      C2549   1.256   1_455  A
Al2537     O2547   1.937       .  S
O2538      C2545   1.267       .  A
O2539      C2548   1.269       .  A
O2539     Al2546   1.947       .  S
O2540     Al2546   1.875       .  S
O2541      C2548   1.257       .  A
O2543      C2544   1.266       .  A
C2544      C3154   1.438       .  S
C2545      C3161   1.433       .  S
C2548      C3155   1.441       .  S
C2549      O2550   1.266       .  A
C2549      C3157   1.432       .  S
C2551      C2552   1.414       .  A
C2551      C2556   1.403       .  A
C2551      C3146   1.484       .  S
C2552      C2553   1.413       .  A
C2552      H2557   1.083       .  S
C2553      C3173   1.445       .  S
C2553      C2554   1.400       .  A
C2554      C2555   1.394       .  A
C2554      H2558   1.085       .  S
C2555      C3144   1.436       .  S
C2555      C2556   1.394       .  A
C2556      H2559   1.085       .  S
C2560      C3141   1.440       .  S
C2560      C2561   1.397       .  A
C2560      C2565   1.406       .  A
C2561      C2562   1.394       .  A
C2561      H2566   1.085       .  S
C2562      C3151   1.440       .  S
C2562      C2563   1.400       .  A
C2563      C2564   1.414       .  A
C2563      H2567   1.082       .  S
C2564      C2565   1.410       .  A
C2564      C3145   1.497       .  S
C2565      H2568   1.084       .  S
C2569      C3172   1.442       .  S
C2569      C2570   1.411       .  A
C2569      C2574   1.400       .  A
C2570      C2571   1.414       .  A
C2570      H2575   1.083       .  S
C2571      C2572   1.401       .  A
C2571      C3138   1.484       .  S
C2572      C2573   1.392       .  A
C2572      H2576   1.085       .  S
C2573      C3135   1.433       .  S
C2573      C2574   1.393       .  A
C2574      H2577   1.085       .  S
C2578      C3133   1.438       .  S
C2578      C2579   1.400       .  A
C2578      C2583   1.407       .  A
C2579      C2580   1.393       .  A
C2579      H2584   1.085       .  S
C2580      C3149   1.436       .  S
C2580      C2581   1.395       .  A
C2581      C2582   1.404       .  A
C2581      H2585   1.085       .  S
C2582      C2583   1.412       .  A
C2583      H2586   1.083       .  S
O2587      C2602   1.256       .  A
O2587     Al2595   1.882       .  S
C2588      O2598   1.256       .  A
C2588      O2589   1.264       .  A
C2588      C3143   1.430       .  S
O2590     Al2591   1.880       .  S
Al2591     O2599   1.883       .  S
C2592      O2605   1.265       .  A
C2592      C3163   1.430       .  S
O2593     Al2595   1.874       .  S
O2594      C2607   1.258   1_545  A
Al2595     O2605   1.938       .  S
Al2595     O2600   1.779       .  S
O2596      C2603   1.264       .  A
O2597      C2606   1.266       .  A
O2597     Al2604   1.933       .  S
O2598     Al2604   1.879       .  S
O2601      C2602   1.265       .  A
C2602      C3198   1.431       .  S
C2603      C3136   1.428       .  S
C2606      C3187   1.436       .  S
C2607      O2608   1.265       .  A
C2607      C3176   1.435       .  S
O2609      C2624   1.262       .  A
O2609     Al2617   1.924       .  S
C2610      O2620   1.266       .  A
C2610      O2611   1.254       .  A
C2610      C3123   1.437       .  S
O2611     Al2613   1.875   1_554  S
O2612      C2614   1.268       .  A
O2612     Al2613   1.947   1_554  S
Al2613     O2621   1.944       .  S
Al2613     O2623   1.885       .  S
Al2613     O2622   1.779       .  S
C2614      O2627   1.256       .  A
C2614      C3122   1.434       .  S
O2615      C2625   1.262       .  A
O2615     Al2617   1.926   1_554  S
O2616      C2629   1.268       .  A
O2616     Al2626   1.942       .  S
Al2617     O2630   1.886       .  S
Al2617     O2627   1.877   1_556  S
Al2617     O2622   1.783       .  S
O2618      C2625   1.255       .  A
O2618     Al2626   1.879   1_554  S
O2619      C2628   1.256       .  A
O2619     Al2626   1.885       .  S
O2620     Al2626   1.946   1_554  S
O2621      C2628   1.268       .  A
O2622     Al2626   1.779       .  S
O2623      C2624   1.256       .  A
C2624      C3131   1.430       .  S
C2625      C3125   1.426       .  S
C2628      C3129   1.441       .  S
C2629      O2630   1.258       .  A
C2629      C3127   1.437       .  S
C2631      C3115   1.438       .  S
C2631      C2632   1.397       .  A
C2631      C2636   1.405       .  A
C2632      C2633   1.394       .  A
C2632      H2637   1.085       .  S
C2633      C3121   1.441       .  S
C2633      C2634   1.401       .  A
C2634      C2635   1.414       .  A
C2634      H2638   1.082       .  S
C2635      C2636   1.408       .  A
C2635      C3117   1.494       .  S
C2636      H2639   1.084       .  S
C2640      C3153   1.443       .  S
C2640      C2641   1.411       .  A
C2640      C2645   1.400       .  A
C2641      C2642   1.415       .  A
C2641      H2646   1.083       .  S
C2642      C2643   1.403       .  A
C2642      C3118   1.486       .  S
C2643      C2644   1.394       .  A
C2643      H2647   1.085       .  S
C2644      C3114   1.435       .  S
C2644      C2645   1.393       .  A
C2645      H2648   1.085       .  S
C2649      C2650   1.415       .  A
C2649      C3110   1.497       .  S
C2650      C2651   1.403       .  A
C2650      H2655   1.082       .  S
C2651      C3124   1.444       .  S
C2651      C2652   1.395       .  A
C2652      H2656   1.085       .  S
C2653      C3107   1.442       .  S
C2653      C2654   1.410       .  A
C2654      H2657   1.083       .  S
C2658      C3156   1.446       .  S
C2658      C2659   1.414       .  A
C2658      C2663   1.400       .  A
C2659      C2660   1.416       .  A
C2659      H2664   1.083       .  S
C2660      C2661   1.402       .  A
C2660      C3109   1.485       .  S
C2661      C2662   1.393       .  A
C2661      H2665   1.085       .  S
C2662      C3106   1.435       .  S
C2662      C2663   1.393       .  A
C2663      H2666   1.085       .  S
C2667      C3099   1.437       .  S
C2667      C2672   1.406       .  A
C2668      C2669   1.392       .  A
C2668      H2673   1.085   1_655  S
C2669      C3126   1.432       .  S
C2669      C2670   1.392       .  A
C2670      C2671   1.402       .  A
C2670      H2674   1.085       .  S
C2671      C3102   1.484       .  S
C2672      H2675   1.084       .  S
C2676      C3158   1.438       .  S
C2676      C2677   1.406       .  A
C2676      C2681   1.398       .  A
C2677      C2678   1.408       .  A
C2677      H2682   1.084       .  S
C2678      C2679   1.413       .  A
C2678      C3101   1.494       .  S
C2679      C2680   1.399       .  A
C2679      H2683   1.082       .  S
C2680      C3098   1.439       .  S
C2680      C2681   1.394       .  A
C2681      H2684   1.085       .  S
O2685      C2700   1.265       .  A
O2685     Al2693   1.929       .  S
C2686      O2696   1.263       .  A
C2686      O2687   1.256       .  A
C2686      C3105   1.429       .  S
O2687     Al2689   1.880       .  S
O2688      C2690   1.265       .  A
O2688     Al2689   1.938       .  S
Al2689     O2697   1.936       .  S
Al2689     O2699   1.881       .  S
Al2689     O2698   1.780       .  S
C2690      O2703   1.255       .  A
C2690      C3097   1.433       .  S
O2691      C2701   1.264       .  A
O2691     Al2693   1.933       .  S
O2692      C2705   1.263       .  A
O2692     Al2702   1.925       .  S
Al2693     O2706   1.888       .  S
Al2693     O2703   1.878       .  S
Al2693     O2698   1.781       .  S
O2694      C2701   1.256       .  A
O2694     Al2702   1.878       .  S
O2695      C2704   1.257       .  A
O2695     Al2702   1.885       .  S
O2696     Al2702   1.931       .  S
O2697      C2704   1.266       .  A
O2698     Al2702   1.779       .  S
O2699      C2700   1.256       .  A
C2700      C3159   1.430       .  S
C2701      C3113   1.429       .  S
C2704      C3142   1.434       .  S
C2705      O2706   1.256       .  A
C2705      C3134   1.432       .  S
O2707      C2722   1.255       .  A
O2707     Al2715   1.879       .  S
C2708      O2718   1.257       .  A
C2708      O2709   1.264       .  A
C2708      C3091   1.428       .  S
O2709     Al2711   1.932   1_556  S
O2710      C2712   1.255       .  A
O2710     Al2711   1.876   1_556  S
Al2711     O2719   1.888       .  S
Al2711     O2721   1.932       .  S
Al2711     O2720   1.780       .  S
C2712      O2725   1.265       .  A
C2712      C3096   1.431       .  S
O2713      C2723   1.254       .  A
O2713     Al2715   1.876   1_556  S
O2714      C2727   1.257       .  A
O2714     Al2724   1.883       .  S
Al2715     O2728   1.934       .  S
Al2715     O2725   1.937   1_554  S
Al2715     O2720   1.779       .  S
O2716      C2723   1.266       .  A
O2716     Al2724   1.944   1_556  S
O2717      C2726   1.266       .  A
O2717     Al2724   1.938       .  S
O2718     Al2724   1.878   1_556  S
O2719      C2726   1.257       .  A
O2720     Al2724   1.779       .  S
O2721      C2722   1.265       .  A
C2722      C3100   1.432       .  S
C2723      C3093   1.434       .  S
C2726      C3108   1.437       .  S
C2727      O2728   1.266       .  A
C2727      C3116   1.432       .  S
C2729      C3084   1.440       .  S
C2729      C2730   1.410       .  A
C2729      C2734   1.399       .  A
C2730      C2731   1.414       .  A
C2730      H2735   1.083       .  S
C2731      C2732   1.402       .  A
C2731      C3087   1.482       .  S
C2732      C2733   1.392       .  A
C2732      H2736   1.085       .  S
C2733      C3086   1.432       .  S
C2733      C2734   1.392       .  A
C2734      H2737   1.085       .  S
C2738      C3132   1.436       .  S
C2738      C2739   1.399       .  A
C2738      C2743   1.403       .  A
C2739      C2740   1.395       .  A
C2739      H2744   1.085       .  S
C2740      C3094   1.441       .  S
C2740      C2741   1.400       .  A
C2741      C2742   1.413       .  A
C2741      H2745   1.082       .  S
C2742      C2743   1.406       .  A
C2742      C3088   1.492       .  S
C2743      H2746   1.084       .  S
C2747      C3076   1.434       .  S
C2747      C2748   1.403       .  A
C2747      C2752   1.397       .  A
C2748      C2749   1.406       .  A
C2748      H2753   1.084       .  S
C2749      C2750   1.411       .  A
C2749      C3080   1.488       .  S
C2750      C2751   1.398       .  A
C2750      H2754   1.083       .  S
C2751      C3077   1.436       .  S
C2751      C2752   1.393       .  A
C2752      H2755   1.085       .  S
C2756      C3130   1.446       .  S
C2756      C2761   1.414       .  A
C2757      C2758   1.394   1_545  A
C2758      C3092   1.434       .  S
C2758      C2759   1.393       .  A
C2759      C2760   1.402       .  A
C2759      H2763   1.085       .  S
C2760      C3079   1.480       .  S
C2761      H2764   1.083       .  S
C2765      C3067   1.441       .  S
C2765      C2766   1.407       .  A
C2765      C2770   1.399       .  A
C2766      C2767   1.409       .  A
C2766      H2771   1.084       .  S
C2767      C2768   1.404       .  A
C2767      C3071   1.478       .  S
C2768      C2769   1.400       .  A
C2768      H2772   1.084       .  S
C2769      C3070   1.439       .  S
C2769      C2770   1.395       .  A
C2770      H2773   1.085       .  S
C2774      C3128   1.442       .  S
C2774      C2779   1.407       .  A
C2775      C2776   1.393       .  A
C2775      H2780   1.085       .  S
C2776      C3095   1.438       .  S
C2776      C2777   1.401       .  A
C2777      C2778   1.413       .  A
C2777      H2781   1.082       .  S
C2778      C3072   1.495       .  S
C2779      H2782   1.084       .  S
O2783      C2798   1.257       .  A
O2783     Al2791   1.883       .  S
C2784      O2794   1.253       .  A
C2784      O2785   1.264       .  A
C2784      C3078   1.429       .  S
O2785     Al2787   1.934       .  S
O2786      C2788   1.256       .  A
O2786     Al2787   1.879       .  S
Al2787     O2795   1.885       .  S
Al2787     O2797   1.930       .  S
Al2787     O2796   1.779       .  S
C2788      O2801   1.262       .  A
C2788      C3085   1.426       .  S
O2789      C2799   1.255       .  A
O2789     Al2791   1.876       .  S
O2790      C2803   1.255       .  A
O2790     Al2800   1.881       .  S
Al2791     O2804   1.925       .  S
Al2791     O2801   1.927       .  S
Al2791     O2796   1.781       .  S
O2792      C2799   1.267       .  A
O2792     Al2800   1.942       .  S
O2793      C2802   1.267       .  A
O2793     Al2800   1.940       .  S
O2794     Al2800   1.873       .  S
O2795      C2802   1.257       .  A
O2796     Al2800   1.778       .  S
O2797      C2798   1.265       .  A
C2798      C3065   1.430       .  S
C2799      C3069   1.433       .  S
C2802      C3062   1.438       .  S
C2803      O2804   1.263       .  A
C2803      C3064   1.429       .  S
C2805      C3054   1.440       .  S
C2805      C2806   1.411       .  A
C2805      C2810   1.398       .  A
C2806      C2807   1.415       .  A
C2806      H2811   1.083       .  S
C2807      C2808   1.402       .  A
C2807      C3057   1.484       .  S
C2808      C2809   1.393       .  A
C2808      H2812   1.085       .  S
C2809      C3056   1.431       .  S
C2809      C2810   1.391       .  A
C2810      H2813   1.085       .  S
C2814      C3066   1.436       .  S
C2814      C2815   1.403       .  A
C2814      C2819   1.398       .  A
C2815      C2816   1.406       .  A
C2815      H2820   1.084       .  S
C2816      C2817   1.414       .  A
C2817      C2818   1.401       .  A
C2817      H2821   1.082       .  S
C2818      C3052   1.441       .  S
C2818      C2819   1.394       .  A
C2819      H2822   1.085       .  S
O2823      C2838   1.267       .  A
C2824      O2834   1.264       .  A
C2824      O2825   1.257       .  A
C2824      C3055   1.425       .  S
O2826      C2828   1.264       .  A
O2826     Al2827   1.940       .  S
Al2827     O2835   1.935       .  S
Al2827     O2837   1.880       .  S
C2828      O2841   1.253       .  A
C2828      C3042   1.433       .  S
O2829      C2839   1.267       .  A
O2830      C2843   1.265       .  A
O2830     Al2840   1.935       .  S
O2832      C2839   1.254       .  A
O2832     Al2840   1.874       .  S
O2833      C2842   1.256       .  A
O2837      C2838   1.257       .  A
C2838      C3048   1.432       .  S
C2839      C3044   1.435       .  S
C2842      C3045   1.431       .  S
C2843      O2844   1.255   1_655  A
C2843      C3050   1.437       .  S
C2845      C3061   1.443       .  S
C2845      C2846   1.408       .  A
C2845      C2850   1.396       .  A
C2846      C2847   1.412       .  A
C2846      H2851   1.084       .  S
C2847      C2848   1.411       .  A
C2847      C3038   1.493       .  S
C2848      C2849   1.402       .  A
C2848      H2852   1.083       .  S
C2849      C3035   1.439       .  S
C2849      C2850   1.394       .  A
C2850      H2853   1.085       .  S
C2854      C3033   1.442       .  S
C2854      C2855   1.399       .  A
C2854      C2859   1.407       .  A
C2855      C2856   1.396       .  A
C2855      H2860   1.085       .  S
C2856      C3043   1.441       .  S
C2856      C2857   1.403       .  A
C2857      C2858   1.406       .  A
C2857      H2861   1.084       .  S
C2858      C2859   1.409       .  A
C2858      C3037   1.480       .  S
C2859      H2862   1.084       .  S
C2863      C3063   1.434       .  S
C2863      C2864   1.403       .  A
C2863      C2868   1.396       .  A
C2864      C2865   1.407       .  A
C2864      H2869   1.084       .  S
C2865      C2866   1.413       .  A
C2865      C3029   1.492   1_565  S
C2866      C2867   1.401       .  A
C2866      H2870   1.082       .  S
C2867      C3027   1.438       .  S
C2867      C2868   1.393       .  A
C2868      H2871   1.085       .  S
C2872      C3026   1.438       .  S
C2872      C2873   1.398       .  A
C2872      C2877   1.406       .  A
C2873      C2874   1.394       .  A
C2873      H2878   1.085       .  S
C2874      C3041   1.440       .  S
C2874      C2875   1.399       .  A
C2875      C2876   1.413       .  A
C2875      H2879   1.082       .  S
C2876      C2877   1.408       .  A
C2877      H2880   1.084       .  S
O2881      C2896   1.265       .  A
C2882      O2883   1.254   1_565  A
C2882      C3028   1.432       .  S
O2884      C2886   1.265       .  A
O2884     Al2885   1.941       .  S
Al2885     O2893   1.935       .  S
Al2885     O2895   1.886       .  S
C2886      O2899   1.254       .  A
C2886      C3051   1.434       .  S
O2887      C2897   1.266       .  A
O2888      C2901   1.263       .  A
O2888     Al2898   1.925       .  S
Al2889     O2894   1.779   1_655  S
O2890      C2897   1.255       .  A
O2890     Al2898   1.875       .  S
O2891      C2900   1.256       .  A
O2892     Al2898   1.927   1_455  S
O2895      C2896   1.256       .  A
C2896      C3083   1.435       .  S
C2897      C3036   1.433       .  S
C2900      C3068   1.435       .  S
C2901      O2902   1.254   1_565  A
C2901      C3075   1.428       .  S
O2903      C2918   1.258       .  A
O2903     Al2911   1.885       .  S
C2904      O2914   1.254       .  A
C2904      O2905   1.264       .  A
C2904      C3023   1.433       .  S
O2905     Al2907   1.937       .  S
O2906      C2908   1.256       .  A
O2906     Al2907   1.878       .  S
Al2907     O2915   1.880       .  S
Al2907     O2917   1.933       .  S
Al2907     O2916   1.779       .  S
C2908      O2921   1.263       .  A
C2908      C3021   1.429       .  S
O2909      C2919   1.256       .  A
O2909     Al2911   1.875       .  S
O2910      C2923   1.256       .  A
O2910     Al2920   1.888       .  S
Al2911     O2924   1.928       .  S
Al2911     O2921   1.933       .  S
Al2911     O2916   1.780       .  S
O2912      C2919   1.264       .  A
O2912     Al2920   1.931       .  S
O2913      C2922   1.265       .  A
O2913     Al2920   1.929       .  S
O2914     Al2920   1.878       .  S
O2915      C2922   1.256       .  A
O2916     Al2920   1.781       .  S
O2917      C2918   1.265       .  A
C2918      C3180   1.432       .  S
C2919      C3019   1.428       .  S
C2922      C3186   1.429       .  S
C2923      O2924   1.264       .  A
C2923      C3196   1.434       .  S
C2925      C3215   1.441       .  S
C2925      C2926   1.398       .  A
C2925      C2930   1.411       .  A
C2926      C2927   1.391       .  A
C2926      H2931   1.085       .  S
C2927      C3020   1.434       .  S
C2927      C2928   1.394       .  A
C2928      C2929   1.404       .  A
C2928      H2932   1.085       .  S
C2929      C2930   1.415       .  A
C2929      C3015   1.486       .  S
C2930      H2933   1.083       .  S
C2934      C3047   1.437       .  S
C2934      C2935   1.405       .  A
C2934      C2939   1.396       .  A
C2935      C2936   1.409       .  A
C2935      H2940   1.084       .  S
C2936      C2937   1.413       .  A
C2936      C3016   1.494       .  S
C2937      C2938   1.400       .  A
C2937      H2941   1.083       .  S
C2938      C3014   1.438       .  S
C2938      C2939   1.393       .  A
C2939      H2942   1.085       .  S
C2943      C3214   1.436       .  S
C2943      C2948   1.403       .  A
C2944      C2945   1.394       .  A
C2944      H2949   1.085       .  S
C2945      C3024   1.439       .  S
C2945      C2946   1.399       .  A
C2946      C2947   1.412       .  A
C2946      H2950   1.083       .  S
C2947      C3009   1.489       .  S
C2948      H2951   1.084       .  S
C2952      C3049   1.441       .  S
C2952      C2953   1.411       .  A
C2952      C2957   1.400       .  A
C2953      C2954   1.415       .  A
C2953      H2958   1.082       .  S
C2954      C2955   1.402       .  A
C2954      C3010   1.484       .  S
C2955      C2956   1.392       .  A
C2955      H2959   1.085       .  S
C2956      C3007   1.433       .  S
C2956      C2957   1.392       .  A
C2957      H2960   1.085       .  S
C2961      C3212   1.445       .  S
C2961      C2966   1.412       .  A
C2962      C2963   1.393       .  A
C2962      H2967   1.085       .  S
C2963      C3022   1.435       .  S
C2963      C2964   1.393       .  A
C2964      C2965   1.402       .  A
C2964      H2968   1.085       .  S
C2965      C3004   1.487       .  S
C2966      H2969   1.083       .  S
C2970      C3046   1.437       .  S
C2970      C2971   1.403       .  A
C2970      C2975   1.399       .  A
C2971      C2972   1.407       .  A
C2971      H2976   1.084       .  S
C2972      C2973   1.415       .  A
C2972      C3003   1.494       .  S
C2973      C2974   1.403       .  A
C2973      H2977   1.082       .  S
C2974      C3001   1.444       .  S
C2974      C2975   1.395       .  A
C2975      H2978   1.085       .  S
O2979      C2994   1.255       .  A
O2979     Al2987   1.883       .  S
C2980      O2990   1.256       .  A
C2980      O2981   1.263       .  A
C2980      C3008   1.427       .  S
O2981     Al2983   1.930       .  S
O2982      C2984   1.255       .  A
O2982     Al2983   1.874       .  S
Al2983     O2991   1.886       .  S
Al2983     O2993   1.930       .  S
Al2983     O2992   1.781       .  S
C2984      O2997   1.267       .  A
C2984      C3013   1.432       .  S
O2985      C2995   1.253       .  A
O2985     Al2987   1.875       .  S
O2986      C2999   1.256       .  A
O2986     Al2996   1.881       .  S
Al2987     O3000   1.938       .  S
Al2987     O2997   1.942       .  S
Al2987     O2992   1.778       .  S
O2988      C2995   1.266       .  A
O2988     Al2996   1.948       .  S
O2989      C2998   1.268       .  A
O2989     Al2996   1.943       .  S
O2990     Al2996   1.878       .  S
O2991      C2998   1.258       .  A
O2992     Al2996   1.779       .  S
O2993      C2994   1.263       .  A
C2994      C3025   1.432       .  S
C2995      C3002   1.438       .  S
C2998      C3034   1.437       .  S
C2999      O3000   1.267       .  A
C2999      C3053   1.436       .  S
C3001      C3002   1.208       .  T
C3003      C3004   1.345       .  D
C3003      H3005   1.086       .  S
C3004      H3006   1.085       .  S
C3007      C3008   1.201       .  T
C3009      C3010   1.344       .  D
C3009      H3011   1.085       .  S
C3010      H3012   1.087       .  S
C3013      C3014   1.204       .  T
C3015      C3016   1.347       .  D
C3015      H3017   1.085       .  S
C3016      H3018   1.086       .  S
C3019      C3020   1.202       .  T
C3021      C3022   1.202       .  T
C3023      C3024   1.205       .  T
C3025      C3026   1.205       .  T
C3027      C3028   1.204       .  T
C3029      C3030   1.345       .  D
C3029      H3031   1.086       .  S
C3033      C3034   1.207       .  T
C3035      C3036   1.205       .  T
C3037      C3038   1.348       .  D
C3037      H3039   1.085       .  S
C3038      H3040   1.087       .  S
C3041      C3042   1.205       .  T
C3043      C3044   1.206       .  T
C3045      C3046   1.204       .  T
C3047      C3048   1.204       .  T
C3049      C3050   1.207       .  T
C3051      C3052   1.206       .  T
C3053      C3054   1.206       .  T
C3055      C3056   1.200       .  T
C3057      C3058   1.345       .  D
C3057      H3059   1.085       .  S
C3058      H3060   1.086       .  S
C3061      C3062   1.208       .  T
C3063      C3064   1.202       .  T
C3065      C3066   1.203       .  T
C3067      C3068   1.206       .  T
C3069      C3070   1.205       .  T
C3071      C3072   1.348       .  D
C3071      H3073   1.083       .  S
C3072      H3074   1.087       .  S
C3075      C3076   1.202       .  T
C3077      C3078   1.203       .  T
C3079      C3080   1.344       .  D
C3079      H3081   1.086       .  S
C3080      H3082   1.086   1_565  S
C3083      C3084   1.206       .  T
C3085      C3086   1.201       .  T
C3087      C3088   1.345       .  D
C3087      H3089   1.084       .  S
C3088      H3090   1.086       .  S
C3091      C3092   1.202       .  T
C3093      C3094   1.206       .  T
C3095      C3096   1.204       .  T
C3097      C3098   1.205       .  T
C3099      C3100   1.204       .  T
C3101      C3102   1.346       .  D
C3101      H3103   1.086       .  S
C3102      H3104   1.085       .  S
C3105      C3106   1.202       .  T
C3107      C3108   1.207       .  T
C3109      C3110   1.346       .  D
C3109      H3111   1.084       .  S
C3110      H3112   1.086       .  S
C3113      C3114   1.203       .  T
C3115      C3116   1.204       .  T
C3117      C3118   1.346       .  D
C3117      H3119   1.086       .  S
C3118      H3120   1.085       .  S
C3121      C3122   1.206       .  T
C3123      C3124   1.208       .  T
C3125      C3126   1.201       .  T
C3127      C3128   1.207       .  T
C3129      C3130   1.210       .  T
C3131      C3132   1.203       .  T
C3133      C3134   1.205       .  T
C3135      C3136   1.202       .  T
C3137      C3138   1.344       .  D
C3138      H3140   1.085       .  S
C3141      C3142   1.206       .  T
C3143      C3144   1.203       .  T
C3145      C3146   1.347       .  D
C3145      H3147   1.086       .  S
C3146      H3148   1.084       .  S
C3149      C3150   1.203       .  T
C3151      C3152   1.205       .  T
C3153      C3154   1.208       .  T
C3155      C3156   1.210       .  T
C3157      C3158   1.205       .  T
C3159      C3160   1.203       .  T
C3161      C3162   1.205       .  T
C3163      C3164   1.204       .  T
C3165      C3166   1.346       .  D
C3165      H3167   1.085       .  S
C3166      H3168   1.086       .  S
C3169      C3170   1.205       .  T
C3171      C3172   1.208       .  T
C3173      C3174   1.209       .  T
C3175      C3176   1.207       .  T
C3177      C3178   1.209       .  T
C3179      C3180   1.205       .  T
C3181      C3182   1.347       .  D
C3181      H3183   1.086       .  S
C3182      H3184   1.085       .  S
C3185      C3186   1.203       .  T
C3187      C3188   1.207       .  T
C3189      C3190   1.202       .  T
C3191      C3192   1.345       .  D
C3191      H3193   1.086       .  S
C3192      H3194   1.085       .  S
C3195      C3196   1.206       .  T
C3197      C3198   1.204       .  T
C3199      C3200   1.205       .  T
C3201      C3202   1.346       .  D
C3201      H3203   1.086       .  S
C3202      H3204   1.085       .  S
C3205      C3206   1.206       .  T
C3207      C3208   1.205       .  T
C3209      C3210   1.202       .  T
C3211      C3212   1.209       .  T
C3213      C3214   1.203       .  T
C3215      C3216   1.207       .  T
