geometry optimzed in LAMMPS
_audit_creation_date              2020-12-01 
_audit_creation_method            'lammps2cif' 
_symmetry_space_group_name_H-M    'P1' 
_symmetry_Int_Tables_number       1 
_symmetry_cell_setting            triclinic 
loop_ 
_symmetry_equiv_pos_as_xyz 
  x,y,z 
_cell_length_a                    26.55513525 
_cell_length_b                    26.535444112862855 
_cell_length_c                    34.23871440417673 
_cell_angle_alpha                 89.64097828431127 
_cell_angle_beta                  90.75620659412901 
_cell_angle_gamma                 82.80798759655742 
loop_ 
_atom_site_label 
_atom_site_type_symbol 
_atom_site_fract_x 
_atom_site_fract_y 
_atom_site_fract_z 
_atom_site_charge 
C1          C  0.16301467  0.99036887  0.08329290     0.42000
N2          N  0.08723507  0.48380872  0.07011510     0.00900
C3          C  0.49226818  0.38822132  0.39933622    -0.07000
H4          H  0.09703720  0.02937863  0.37432699     0.06400
C5          C  0.47222265  0.15149794  0.45417985    -0.07400
Co6        Co  0.07433137  0.42476436  0.49725760     0.74200
N7          N  0.08079237  0.49122058  0.42728964    -0.26500
Co8        Co  0.49997222  0.99805052  0.42780975     0.74100
C9          C  0.99939735  0.15489552  0.41777024     0.42100
N10         N  0.47481346  0.09692403  0.04604443     0.00500
N11         N  0.49457266  0.07676316  0.43057703     0.00600
N12         N  0.03668781  0.34169136  0.44696843    -0.47400
H13         H  0.19188304  0.44515999  0.02796046     0.06300
N14         N  0.10864375  0.46485203  0.45440898     0.00900
N15         N  0.42108332  0.00395172  0.43000588     0.00600
C16         C  0.34487066  0.49960074  0.41697701     0.42200
N17         N  0.50043203  0.06872996  0.07333814    -0.26000
C18         C  0.03795357  0.33648875  0.04559546    -0.06900
N19         N  0.11542733  0.00157097  0.09673628    -0.47100
N20         N  0.39232678  0.48720481  0.40353640    -0.47300
C21         C  0.51064116  0.33261065  0.08190474     0.42000
N22         N  0.03444074  0.39101865  0.45367691     0.00900
N23         N  0.42731077  0.99698287  0.07227662    -0.26000
N24         N  0.11209484  0.46022763  0.04100142    -0.26500
N25         N  0.39983005  0.02393700  0.04525931     0.00500
H26         H  0.41034266  0.45954676  0.12527424     0.06400
H27         H  0.31688076  0.04519866  0.47185634     0.06400
N28         N  0.00828778  0.41894286  0.42648420    -0.26600
N29         N  0.47061399  0.10163167  0.45951539    -0.26200
N30         N  0.01374447  0.41105850  0.06886214     0.00900
C31         C  0.16015124  0.99011680  0.41471667     0.42300
C32         C  0.01749868  0.09918668  0.10021457    -0.07400
N33         N  0.39653068  0.02832720  0.45892461    -0.26200
H34         H  0.45439319  0.18155576  0.47241704     0.06400
N35         N  0.15798308  0.46249828  0.44788248    -0.47400
H36         H  0.03853433  0.08694331  0.12660217     0.06400
C37         C  0.34776729  0.50022120  0.08505575     0.42100
C38         C  0.16185937  0.46231466  0.04644830    -0.06900
Co39       Co  0.00839866  0.48980884  0.07191925     0.73800
N40         N  0.47387581  0.14619826  0.05245009    -0.47100
C41         C  0.51059313  0.33722816  0.41339824     0.42400
N42         N  0.49756185  0.38013842  0.09516485    -0.47100
Co43       Co  0.43456561  0.06357407  0.00249481     0.73900
C44         C  0.34664905  0.02716241  0.45353280    -0.07400
C45         C  0.10916039  0.00836176  0.40065834    -0.07000
N46         N  0.03840390  0.38647602  0.04008615    -0.26500
N47         N  0.01142846  0.10728482  0.40440161    -0.47300
H48         H  0.47144353  0.40018101  0.37279910     0.06400
C49         C  0.39857928  0.48072461  0.09895511    -0.07400
Cl50       Cl  0.00329267  0.99417273  0.99993984    -0.50400
C51         C  0.00042804  0.15029607  0.08592054     0.42100
H52         H  0.05667826  0.30666519  0.02757575     0.06300
N53         N  0.35044960  0.02748020  0.05190025    -0.47100
C54         C  0.00717578  0.24341980  0.16489222     0.79700
N55         N  0.00708001  0.28706565  0.14387281    -0.78600
C56         C  0.00667948  0.28617133  0.10424186     0.82200
N57         N  0.00508252  0.24159280  0.08538182    -0.78500
C58         C  0.00431162  0.19799080  0.10610341     0.82300
N59         N  0.00583033  0.19892219  0.14570324    -0.80200
C60         C  0.00633594  0.24306391  0.33467306     0.79700
N61         N  0.00728670  0.28780038  0.35365335    -0.78600
C62         C  0.00758482  0.28921216  0.39326767     0.82200
N63         N  0.00596617  0.24585784  0.41416432    -0.78500
C64         C  0.00467457  0.20109558  0.39548850     0.82300
N65         N  0.00550496  0.19974463  0.35589770    -0.80200
C66         C  0.25616403  0.49726262  0.16509133     0.79700
N67         N  0.30004675  0.49822020  0.14532012    -0.78600
C68         C  0.30009066  0.49856932  0.10571973     0.82200
N69         N  0.25602918  0.49699713  0.08554034    -0.78500
C70         C  0.21192235  0.49568858  0.10493183     0.82300
N71         N  0.21197369  0.49640419  0.14463291    -0.80200
C72         C  0.25359718  0.49623933  0.33485446     0.79700
N73         N  0.29785195  0.49593719  0.35538123    -0.78600
C74         C  0.29809486  0.49465271  0.39504032     0.82200
N75         N  0.25408136  0.49248438  0.41435721    -0.78500
C76         C  0.20993224  0.49192941  0.39407934     0.82300
N77         N  0.20977243  0.49428521  0.35448975    -0.80200
C78         C  0.25639557  0.49692175  0.20856945    -0.00600
C79         C  0.21064693  0.02111234  0.22816851    -0.12500
C80         C  0.20889832  0.02199258  0.26906291     0.01600
C81         C  0.25352327  0.49782785  0.29143890    -0.00700
C82         C  0.29693716  0.47589482  0.27195923    -0.12500
C83         C  0.29883557  0.47521696  0.23112968     0.01500
H84         H  0.17808868  0.03866311  0.21138296     0.14500
H85         H  0.32948853  0.45828468  0.28873076     0.14500
C86         C  0.34438670  0.45023972  0.21360953     0.36100
C87         C  0.16400485  0.04800648  0.28684764     0.36000
N88         N  0.38113313  0.43013137  0.19998454    -0.44200
N89         N  0.12798705  0.06913466  0.30083546    -0.44200
C90         C  0.00783826  0.24394029  0.20833839    -0.00600
C91         C  0.48787229  0.20482614  0.22854562    -0.12500
C92         C  0.48689500  0.20347943  0.26941147     0.01600
C93         C  0.00651724  0.24196571  0.29123321    -0.00700
C94         C  0.02792397  0.28018817  0.27103488    -0.12500
C95         C  0.02894487  0.28146662  0.23017020     0.01500
H96         H  0.47200972  0.17538019  0.21235271     0.14500
H97         H  0.04467944  0.30904494  0.28725304     0.14500
C98         C  0.05354175  0.32081828  0.21178480     0.36100
C99         C  0.46367163  0.16311356  0.28772018     0.35500
N100        N  0.07329501  0.35236781  0.19712189    -0.44200
N101        N  0.44502251  0.13074438  0.30230144    -0.44200
C102        C  0.16299809  0.99051854  0.58327697     0.42000
N103        N  0.08719343  0.48393549  0.57013652     0.00900
C104        C  0.49217653  0.38801689  0.89939367    -0.07000
H105        H  0.09716768  0.02909454  0.87428918     0.06400
C106        C  0.47224354  0.15126807  0.95419669    -0.07400
Co107      Co  0.07436880  0.42466006  0.99722729     0.74200
N108        N  0.08076129  0.49113715  0.92725527    -0.26500
Co109      Co  0.50006920  0.99782433  0.92785372     0.74100
C110        C  0.99966453  0.15474763  0.91785919     0.42100
N111        N  0.47479772  0.09715069  0.54600071     0.00500
N112        N  0.49465206  0.07653460  0.93061536     0.00600
N113        N  0.03666130  0.34159414  0.94697760    -0.47400
H114        H  0.19182818  0.44526953  0.52796737     0.06300
N115        N  0.10863224  0.46478508  0.95437283     0.00900
N116        N  0.42118420  0.00370628  0.93003171     0.00600
C117        C  0.34483149  0.49956635  0.91698267     0.42200
N118        N  0.50042952  0.06895133  0.57328474    -0.26000
C119        C  0.03779001  0.33664691  0.54558158    -0.06900
N120        N  0.11541092  0.00173539  0.59671801    -0.47100
N121        N  0.39228649  0.48710182  0.90356085    -0.47300
C122        C  0.51068345  0.33283653  0.58191058     0.42000
N123        N  0.03445670  0.39092256  0.95365751     0.00900
N124        N  0.42728798  0.99721059  0.57224134    -0.26000
N125        N  0.11204678  0.46033549  0.54102802    -0.26500
N126        N  0.39979853  0.02417645  0.54523547     0.00500
H127        H  0.41032426  0.45975246  0.62522627     0.06400
H128        H  0.31695603  0.04490631  0.97186279     0.06400
N129        N  0.00826620  0.41883802  0.92647845    -0.26600
N130        N  0.47067451  0.10139871  0.95954799    -0.26200
N131        N  0.01366462  0.41121504  0.56888112     0.00900
C132        C  0.16027013  0.98981108  0.91467690     0.42300
C133        C  0.01753403  0.09934176  0.60013631    -0.07400
N134        N  0.39661295  0.02807108  0.95894625    -0.26200
H135        H  0.45438248  0.18132337  0.97242136     0.06400
N136        N  0.15796742  0.46248483  0.94785016    -0.47400
H137        H  0.03862060  0.08710822  0.62650367     0.06400
C138        C  0.34773600  0.50040840  0.58501252     0.42100
C139        C  0.16181142  0.46242921  0.54645903    -0.06900
Co140      Co  0.00835006  0.48996187  0.57193920     0.73800
N141        N  0.47389116  0.14642420  0.55239707    -0.47100
C142        C  0.51049652  0.33701872  0.91344979     0.42400
N143        N  0.49756789  0.38036823  0.59515180    -0.47100
Co144      Co  0.43451609  0.06381361  0.50246559     0.73900
C145        C  0.34673704  0.02688191  0.95354525    -0.07400
C146        C  0.10928477  0.00810687  0.90063495    -0.07000
N147        N  0.03831535  0.38662542  0.54010415    -0.26500
N148        N  0.01165471  0.10714472  0.90446550    -0.47300
H149        H  0.47132684  0.39998160  0.87286829     0.06400
C150        C  0.39855257  0.48092603  0.59890681    -0.07400
Cl151      Cl  0.00321805  0.99431022  0.49993334    -0.50400
C152        C  0.00046082  0.15044209  0.58583317     0.42100
H153        H  0.05648196  0.30681877  0.52754976     0.06300
N154        N  0.35041842  0.02767771  0.55186631    -0.47100
C155        C  0.00706934  0.24355256  0.66483947     0.79700
N156        N  0.00685517  0.28720735  0.64381348    -0.78600
C157        C  0.00647429  0.28633084  0.60418546     0.82200
N158        N  0.00497918  0.24175126  0.58531252    -0.78500
C159        C  0.00431183  0.19813197  0.60602439     0.82300
N160        N  0.00585552  0.19904875  0.64562419    -0.80200
C161        C  0.00639462  0.24290333  0.83473121     0.79700
N162        N  0.00718191  0.28766581  0.85371565    -0.78600
C163        C  0.00750770  0.28909462  0.89332780     0.82200
N164        N  0.00603601  0.24573165  0.91423665    -0.78500
C165        C  0.00487309  0.20094913  0.89557111     0.82300
N166        N  0.00571185  0.19958483  0.85598249    -0.80200
C167        C  0.25617360  0.49728888  0.66506583     0.79700
N168        N  0.30004492  0.49829203  0.64528683    -0.78600
C169        C  0.30006589  0.49871731  0.60568412     0.82200
N170        N  0.25599302  0.49716916  0.58551213    -0.78500
C171        C  0.21189924  0.49581389  0.60491386     0.82300
N172        N  0.21197580  0.49645633  0.64461411    -0.80200
C173        C  0.25357095  0.49624744  0.83483594     0.79700
N174        N  0.29782205  0.49594281  0.85537086    -0.78600
C175        C  0.29805220  0.49467173  0.89503142     0.82200
N176        N  0.25403190  0.49251793  0.91434013    -0.78500
C177        C  0.20988832  0.49196580  0.89405609     0.82300
N178        N  0.20973972  0.49430637  0.85446631    -0.80200
C179        C  0.25640538  0.49691822  0.70854490    -0.00600
C180        C  0.21075032  0.02121429  0.72817263    -0.12500
C181        C  0.20903577  0.02206610  0.76907034     0.01600
C182        C  0.25350621  0.49781781  0.79141712    -0.00700
C183        C  0.29694788  0.47593618  0.77194225    -0.12500
C184        C  0.29886078  0.47526447  0.73111094     0.01500
H185        H  0.17818328  0.03878660  0.71140736     0.14500
H186        H  0.32951427  0.45836975  0.78871835     0.14500
C187        C  0.34444879  0.45035987  0.71359652     0.36100
C188        C  0.16418660  0.04811858  0.78688928     0.36000
N189        N  0.38122852  0.43031041  0.69998118    -0.44200
N190        N  0.12821113  0.06928627  0.80090878    -0.44200
C191        C  0.00776499  0.24403863  0.70831784    -0.00600
C192        C  0.48815010  0.20467509  0.72849584    -0.12500
C193        C  0.48722547  0.20320144  0.76936357     0.01600
C194        C  0.00659190  0.24181389  0.79126092    -0.00700
C195        C  0.02637850  0.28105864  0.77105800    -0.12500
C196        C  0.02730584  0.28249285  0.73019692     0.01500
H197        H  0.47254302  0.17510105  0.71227212     0.14500
H198        H  0.04191836  0.31068192  0.78726333     0.14500
C199        C  0.05011982  0.32312295  0.71190537     0.36100
C200        C  0.46445174  0.16249650  0.78761028     0.35500
N201        N  0.06843078  0.35572109  0.69733862    -0.44200
N202        N  0.44617306  0.12984120  0.80213093    -0.44200
C203        C  0.16532500  0.48940837  0.08308011     0.42000
N204        N  0.08501416  0.98426703  0.07036118     0.00900
C205        C  0.49092881  0.88838707  0.39930099    -0.07000
H206        H  0.09945016  0.52861121  0.37423249     0.06400
C207        C  0.47392635  0.65121160  0.45400593    -0.07400
Co208      Co  0.07241756  0.92537451  0.49738644     0.74200
N209        N  0.07859042  0.99183169  0.42737085    -0.26500
Co210      Co  0.50211270  0.49776706  0.42770600     0.74100
C211        C  0.00098659  0.65473379  0.41758480     0.42100
N212        N  0.47703743  0.59659198  0.04595542     0.00500
N213        N  0.49683146  0.57651040  0.43052523     0.00600
N214        N  0.03549437  0.84208301  0.44699060    -0.47400
H215        H  0.18978716  0.94636240  0.02811842     0.06300
N216        N  0.10654339  0.96563874  0.45452053     0.00900
N217        N  0.42322398  0.50382521  0.42987372     0.00600
C218        C  0.34269920  0.99989263  0.41710008     0.42200
N219        N  0.50271114  0.56843152  0.07324112    -0.26000
C220        C  0.03685340  0.83686190  0.04588366    -0.06900
N221        N  0.11776225  0.50092392  0.09649550    -0.47100
N222        N  0.39014969  0.98738782  0.40366239    -0.47300
C223        C  0.50993780  0.83275279  0.08229735     0.42000
N224        N  0.03271893  0.89141896  0.45380980     0.00900
N225        N  0.42958059  0.49664944  0.07226083    -0.26000
N226        N  0.10998255  0.96090307  0.04120750    -0.26500
N227        N  0.40201426  0.52360067  0.04529244     0.00500
H228        H  0.40788608  0.96049239  0.12550430     0.06400
H229        H  0.31898231  0.54476192  0.47179643     0.06400
N230        N  0.00645621  0.91921334  0.42659964    -0.26600
N231        N  0.47275897  0.60130831  0.45945210    -0.26200
N232        N  0.01169073  0.91134321  0.06895071     0.00900
C233        C  0.16240852  0.48902018  0.41460608     0.42300
C234        C  0.01946339  0.59895291  0.10019326    -0.07400
N235        N  0.39865034  0.52807579  0.45883761    -0.26200
H236        H  0.45579776  0.68120161  0.47216364     0.06400
N237        N  0.15586112  0.96356615  0.44800416    -0.47400
H238        H  0.04034183  0.58675762  0.12665990     0.06400
C239        C  0.34544886  0.00115082  0.08514491     0.42100
C240        C  0.15969576  0.96328516  0.04664402    -0.06900
Co241      Co  0.00616426  0.99014070  0.07204237     0.73800
N242        N  0.47574446  0.64586811  0.05247926    -0.47100
C243        C  0.50970032  0.83745540  0.41328226     0.42400
N244        N  0.49616324  0.88024960  0.09541398    -0.47100
Co245      Co  0.43670010  0.56327315  0.00246293     0.73900
C246        C  0.34877178  0.52684208  0.45343819    -0.07400
C247        C  0.11147115  0.50755533  0.40056730    -0.07000
N248        N  0.03662655  0.88689866  0.04023315    -0.26500
N249        N  0.01333590  0.60713087  0.40425822    -0.47300
H250        H  0.47030729  0.90026181  0.37265893     0.06400
C251        C  0.39620920  0.98143641  0.09906614    -0.07400
Cl252      Cl  0.00536509  0.49381416  0.99982209    -0.50400
C253        C  0.00208709  0.65005524  0.08597422     0.42100
H254        H  0.05603954  0.80716895  0.02798077     0.06300
N255        N  0.35263737  0.52680408  0.05189704    -0.47100
C256        C  0.00691120  0.74324606  0.16512410     0.79700
N257        N  0.00651190  0.78703919  0.14422740    -0.78600
C258        C  0.00635222  0.78619449  0.10459241     0.82200
N259        N  0.00553135  0.74153068  0.08568755    -0.78500
C260        C  0.00516643  0.69779610  0.10632174     0.82300
N261        N  0.00620712  0.69867610  0.14593006    -0.80200
C262        C  0.00617068  0.74333576  0.33450171     0.79700
N263        N  0.00681336  0.78810078  0.35347807    -0.78600
C264        C  0.00728943  0.78939337  0.39309496     0.82200
N265        N  0.00637671  0.74587543  0.41392963    -0.78500
C266        C  0.00551853  0.70106387  0.39522695     0.82300
N267        N  0.00594768  0.69982932  0.35561857    -0.80200
C268        C  0.25376721  0.99921507  0.16520129     0.79700
N269        N  0.29765474  0.00001189  0.14541473    -0.78600
C270        C  0.29772720  0.99994360  0.10582448     0.82200
N271        N  0.25368037  0.99815610  0.08567187    -0.78500
C272        C  0.20956110  0.99702050  0.10508443     0.82300
N273        N  0.20959232  0.99810877  0.14477608    -0.80200
C274        C  0.25123444  0.99784605  0.33494834     0.79700
N275        N  0.29556008  0.99706464  0.35546663    -0.78600
C276        C  0.29586955  0.99535326  0.39511684     0.82200
N277        N  0.25184918  0.99325432  0.41442948    -0.78500
C278        C  0.20762924  0.99317883  0.39416952     0.82300
N279        N  0.20740264  0.99594664  0.35459032    -0.80200
C280        C  0.25403689  0.99898561  0.20866375    -0.00600
C281        C  0.21303542  0.51916608  0.22806895    -0.12500
C282        C  0.21136652  0.52027640  0.26896512     0.01600
C283        C  0.25114448  0.99968803  0.29152888    -0.00700
C284        C  0.29461459  0.97792854  0.27201994    -0.12500
C285        C  0.29646819  0.97722862  0.23119538     0.01500
H286        H  0.18052407  0.53681309  0.21128044     0.14500
H287        H  0.32718634  0.96029992  0.28875868     0.14500
C288        C  0.34182536  0.95188293  0.21363661     0.36100
C289        C  0.16683265  0.54697317  0.28677887     0.36000
N290        N  0.37834695  0.93139595  0.19993840    -0.44200
N291        N  0.13120624  0.56872220  0.30086982    -0.44200
C292        C  0.00744338  0.74376420  0.20845165    -0.00600
C293        C  0.48180922  0.70864884  0.22860887    -0.12500
C294        C  0.48073487  0.70771606  0.26948288     0.01600
C295        C  0.00608340  0.74232169  0.29117254    -0.00700
C296        C  0.03187324  0.77734212  0.27099693    -0.12500
C297        C  0.03304537  0.77818589  0.23013379     0.01500
H298        H  0.46159782  0.68232099  0.21233906     0.14500
H299        H  0.05206087  0.80369565  0.28725162     0.14500
C300        C  0.06277590  0.81322604  0.21145758     0.36100
C301        C  0.45145263  0.67225617  0.28815100     0.35500
N302        N  0.08675262  0.84116500  0.19649341    -0.44200
N303        N  0.42793343  0.64389907  0.30310671    -0.44200
C304        C  0.16528976  0.48954916  0.58307418     0.42000
N305        N  0.08498944  0.98444434  0.57034094     0.00900
C306        C  0.49097307  0.88816694  0.89937762    -0.07000
H307        H  0.09938493  0.52858158  0.87421208     0.06400
C308        C  0.47395259  0.65100572  0.95404982    -0.07400
Co309      Co  0.07247412  0.92521690  0.99739489     0.74200
N310        N  0.07870702  0.99165145  0.92737641    -0.26500
Co311      Co  0.50208606  0.49756008  0.92774812     0.74100
C312        C  0.00092976  0.65463022  0.91755543     0.42100
N313        N  0.47697758  0.59681846  0.54590512     0.00500
N314        N  0.49682201  0.57630310  0.93056053     0.00600
N315        N  0.03551872  0.84195372  0.94699915    -0.47400
H316        H  0.18975278  0.94650178  0.52810154     0.06300
N317        N  0.10664770  0.96545709  0.95453189     0.00900
N318        N  0.42319940  0.50364266  0.92992424     0.00600
C319        C  0.34281207  0.99960903  0.91711127     0.42200
N320        N  0.50265805  0.56866340  0.57319000    -0.26000
C321        C  0.03683441  0.83701338  0.54589600    -0.06900
N322        N  0.11773101  0.50107013  0.59650060    -0.47100
N323        N  0.39026916  0.98712941  0.90368090    -0.47300
C324        C  0.50987877  0.83298096  0.58229993     0.42000
N325        N  0.03277619  0.89128771  0.95381087     0.00900
N326        N  0.42954574  0.49685947  0.57221106    -0.26000
N327        N  0.10994824  0.96107325  0.54118693    -0.26500
N328        N  0.40197308  0.52380330  0.54524246     0.00500
H329        H  0.40787912  0.96062189  0.62542816     0.06400
H330        H  0.31897452  0.54473088  0.97180952     0.06400
N331        N  0.00652164  0.91909268  0.92660241    -0.26600
N332        N  0.47278172  0.60110386  0.95949985    -0.26200
N333        N  0.01168935  0.91149505  0.56896868     0.00900
C334        C  0.16236962  0.48902391  0.91457887     0.42300
C335        C  0.01943932  0.59911119  0.60019115    -0.07400
N336        N  0.39864218  0.52790819  0.95888895    -0.26200
H337        H  0.45584188  0.68099778  0.97221441     0.06400
N338        N  0.15596769  0.96331256  0.94799034    -0.47400
H339        H  0.04031916  0.58692223  0.62665847     0.06400
C340        C  0.34543079  0.00130127  0.58508999     0.42100
C341        C  0.15966566  0.96344009  0.54662432    -0.06900
Co342      Co  0.00614190  0.99029544  0.57203781     0.73800
N343        N  0.47567570  0.64609627  0.55242794    -0.47100
C344        C  0.50973059  0.83723590  0.91336186     0.42400
N345        N  0.49612927  0.88048469  0.59541086    -0.47100
Co346      Co  0.43666796  0.56347577  0.50240984     0.73900
C347        C  0.34875353  0.52676268  0.95346414    -0.07400
C348        C  0.11142244  0.50751357  0.90053814    -0.07000
N349        N  0.03660379  0.88704950  0.54024151    -0.26500
N350        N  0.01327471  0.60702872  0.90422505    -0.47300
H351        H  0.47031273  0.90004151  0.87275212     0.06400
C352        C  0.39619509  0.98160642  0.59901006    -0.07400
Cl353      Cl  0.00534527  0.49393835  0.49984044    -0.50400
C354        C  0.00206135  0.65021013  0.58596567     0.42100
H355        H  0.05600464  0.80731966  0.52798571     0.06300
N356        N  0.35259568  0.52699427  0.55185111    -0.47100
C357        C  0.00693346  0.74335970  0.66512956     0.79700
N358        N  0.00653977  0.78716577  0.64424848    -0.78600
C359        C  0.00635404  0.78634252  0.60461134     0.82200
N360        N  0.00550623  0.74169038  0.58569328    -0.78500
C361        C  0.00514084  0.69794699  0.60631572     0.82300
N362        N  0.00620482  0.69880595  0.64592189    -0.80200
C363        C  0.00624896  0.74325751  0.83449939     0.79700
N364        N  0.00687981  0.78801151  0.85348831    -0.78600
C365        C  0.00729947  0.78929026  0.89310341     0.82200
N366        N  0.00634286  0.74576980  0.91392596    -0.78500
C367        C  0.00549428  0.70096599  0.89521065     0.82300
N368        N  0.00597889  0.69974427  0.85560176    -0.80200
C369        C  0.25380520  0.99932945  0.66517265     0.79700
N370        N  0.29767679  0.00012736  0.64536837    -0.78600
C371        C  0.29772334  0.00007516  0.60577907     0.82200
N372        N  0.25366503  0.99830011  0.58564011    -0.78500
C373        C  0.20955650  0.99715959  0.60506614     0.82300
N374        N  0.20961305  0.99823467  0.64476161    -0.80200
C375        C  0.25136560  0.99775006  0.83493102     0.79700
N376        N  0.29568862  0.99691882  0.85545996    -0.78600
C377        C  0.29599541  0.99508851  0.89510775     0.82200
N378        N  0.25197599  0.99292176  0.91440622    -0.78500
C379        C  0.20775740  0.99289137  0.89413688     0.82300
N380        N  0.20753259  0.99577972  0.85456004    -0.80200
C381        C  0.25411881  0.99909063  0.70863922    -0.00600
C382        C  0.21301515  0.51909678  0.72803965    -0.12500
C383        C  0.21133024  0.52020384  0.76893353     0.01600
C384        C  0.25128091  0.99970852  0.79151153    -0.00700
C385        C  0.29474648  0.97799247  0.77197640    -0.12500
C386        C  0.29657931  0.97734387  0.73114945     0.01500
H387        H  0.18048779  0.53670257  0.71124831     0.14500
H388        H  0.32733022  0.96035150  0.78869594     0.14500
C389        C  0.34195555  0.95206708  0.71357153     0.36100
C390        C  0.16675063  0.54683683  0.78672884     0.36000
N391        N  0.37850264  0.93163853  0.69987053    -0.44200
N392        N  0.13108066  0.56853656  0.80079524    -0.44200
C393        C  0.00748705  0.74383392  0.70845506    -0.00600
C394        C  0.48206631  0.70844557  0.72859678    -0.12500
C395        C  0.48108947  0.70737195  0.76947439     0.01600
C396        C  0.00618227  0.74227493  0.79117223    -0.00700
C397        C  0.03202820  0.77727170  0.77101811    -0.12500
C398        C  0.03317151  0.77817225  0.73015397     0.01500
H399        H  0.46210502  0.68193085  0.71231401     0.14500
H400        H  0.05227063  0.80356564  0.78728951     0.14500
C401        C  0.06294847  0.81318005  0.71148872     0.36100
C402        C  0.45228074  0.67147096  0.78810329     0.35500
N403        N  0.08695986  0.84109079  0.69652815    -0.44200
N404        N  0.42915611  0.64274393  0.80302473    -0.44200
C405        C  0.66301431  0.99044334  0.08328949     0.42000
N406        N  0.58723561  0.48375806  0.07013749     0.00900
C407        C  0.99227860  0.38819506  0.39933640    -0.07000
H408        H  0.59705179  0.02933666  0.37427142     0.06400
C409        C  0.97212030  0.15147965  0.45414165    -0.07400
Co410      Co  0.57436216  0.42483518  0.49722792     0.74200
N411        N  0.58079100  0.49128405  0.42724628    -0.26500
Co412      Co  0.99996339  0.99801906  0.42782885     0.74100
C413        C  0.49954407  0.15491207  0.41783173     0.42100
N414        N  0.97486324  0.09697938  0.04603857     0.00500
N415        N  0.99454265  0.07673710  0.43057736     0.00600
N416        N  0.53671243  0.34174274  0.44696460    -0.47400
H417        H  0.69186860  0.44508770  0.02796820     0.06300
N418        N  0.60865234  0.46493939  0.45437271     0.00900
N419        N  0.92108154  0.00390443  0.43002441     0.00600
C420        C  0.84486810  0.49966607  0.41697507     0.42200
N421        N  0.00045804  0.06876877  0.07333461    -0.26000
C422        C  0.53784222  0.33646200  0.04557161    -0.06900
N423        N  0.61542632  0.00161396  0.09673956    -0.47100
N424        N  0.89232558  0.48723394  0.40354876    -0.47300
C425        C  0.01079701  0.33263319  0.08195274     0.42000
N426        N  0.53447941  0.39107283  0.45365195     0.00900
N427        N  0.92730546  0.99705351  0.07224422    -0.26000
N428        N  0.61208584  0.46016661  0.04102375    -0.26500
N429        N  0.89983906  0.02403857  0.04523584     0.00500
H430        H  0.91035927  0.45949897  0.12520887     0.06400
H431        H  0.81686464  0.04513714  0.47185881     0.06400
N432        N  0.50830662  0.41898282  0.42646139    -0.26600
N433        N  0.97057834  0.10160707  0.45951300    -0.26200
N434        N  0.51371838  0.41102761  0.06887894     0.00900
C435        C  0.66016310  0.99007829  0.41466606     0.42300
C436        C  0.51749353  0.09916047  0.10019842    -0.07400
N437        N  0.89651996  0.02827758  0.45894030    -0.26200
H438        H  0.95425961  0.18153824  0.47236363     0.06400
N439        N  0.65798957  0.46260252  0.44784319    -0.47400
H440        H  0.53855840  0.08693063  0.12657613     0.06400
C441        C  0.84777867  0.50018712  0.08500322     0.42100
C442        C  0.66185266  0.46224789  0.04646049    -0.06900
Co443      Co  0.50839314  0.48977398  0.07194662     0.73800
N444        N  0.97392363  0.14625043  0.05246011    -0.47100
C445        C  0.01060080  0.33719402  0.41338415     0.42400
N446        N  0.99765694  0.38016715  0.09518061    -0.47100
Co447      Co  0.93460288  0.06366338  0.00248272     0.73900
C448        C  0.84664063  0.02710272  0.45354116    -0.07400
C449        C  0.60917337  0.00834011  0.40061248    -0.07000
N450        N  0.53836752  0.38644278  0.04009970    -0.26500
N451        N  0.51152394  0.10730932  0.40443419    -0.47300
H452        H  0.97148423  0.40016916  0.37278911     0.06400
C453        C  0.89859272  0.48070093  0.09890140    -0.07400
Cl454      Cl  0.50329202  0.99411995  0.99995700    -0.50400
C455        C  0.50040889  0.15026033  0.08589561     0.42100
H456        H  0.55652886  0.30663637  0.02753475     0.06300
N457        N  0.85045621  0.02759307  0.05186874    -0.47100
C458        C  0.50712324  0.24342285  0.16485454     0.79700
N459        N  0.50693858  0.28705619  0.14381138    -0.78600
C460        C  0.50653135  0.28615138  0.10418561     0.82200
N461        N  0.50498593  0.24156352  0.08533302    -0.78500
C462        C  0.50428921  0.19796245  0.10606643     0.82300
N463        N  0.50585040  0.19890783  0.14566671    -0.80200
C464        C  0.50639726  0.24304062  0.33471295     0.79700
N465        N  0.50726130  0.28779911  0.35368653    -0.78600
C466        C  0.50758155  0.28923515  0.39330036     0.82200
N467        N  0.50603468  0.24588541  0.41421478    -0.78500
C468        C  0.50480646  0.20110803  0.39555230     0.82300
N469        N  0.50564687  0.19973687  0.35596603    -0.80200
C470        C  0.75621854  0.49723682  0.16506400     0.79700
N471        N  0.80008931  0.49819012  0.14527815    -0.78600
C472        C  0.80011237  0.49852706  0.10567775     0.82200
N473        N  0.75604126  0.49694478  0.08551243    -0.78500
C474        C  0.71194505  0.49563641  0.10491964     0.82300
N475        N  0.71201852  0.49636540  0.14462036    -0.80200
C476        C  0.75363158  0.49633322  0.33482542     0.79700
N477        N  0.79787613  0.49602767  0.35536536    -0.78600
C478        C  0.79809745  0.49474858  0.39502402     0.82200
N479        N  0.75407359  0.49258722  0.41432733    -0.78500
C480        C  0.70993354  0.49203381  0.39403756     0.82300
N481        N  0.70979417  0.49438379  0.35444736    -0.80200
C482        C  0.75646523  0.49694201  0.20854190    -0.00600
C483        C  0.71072775  0.02125056  0.22815634    -0.12500
C484        C  0.70899474  0.02211122  0.26905141     0.01600
C485        C  0.75358242  0.49791066  0.29141003    -0.00700
C486        C  0.79700623  0.47597705  0.27194167    -0.12500
C487        C  0.79891716  0.47528453  0.23111187     0.01500
H488        H  0.67817897  0.03884385  0.21138116     0.14500
H489        H  0.82955949  0.45838955  0.28872216     0.14500
C490        C  0.84450631  0.45036993  0.21360513     0.36100
C491        C  0.66415793  0.04820981  0.28685651     0.36000
N492        N  0.88129128  0.43032251  0.19999630    -0.44200
N493        N  0.62819679  0.06941441  0.30087016    -0.44200
C494        C  0.50781749  0.24396526  0.20832266    -0.00600
C495        C  0.98668828  0.20553861  0.22853221    -0.12500
C496        C  0.98565394  0.20425315  0.26939831     0.01600
C497        C  0.50657914  0.24191730  0.29125201    -0.00700
C498        C  0.52679078  0.28087882  0.27102434    -0.12500
C499        C  0.52774942  0.28222219  0.23016167     0.01500
H500        H  0.96991944  0.17668660  0.21231038     0.14500
H501        H  0.54264034  0.31032979  0.28721267     0.14500
C502        C  0.55100213  0.32252654  0.21181746     0.36100
C503        C  0.96110112  0.16482461  0.28774412     0.35500
N504        N  0.56966125  0.35486156  0.19720252    -0.44200
N505        N  0.94137639  0.13322513  0.30237096    -0.44200
C506        C  0.66299999  0.99051828  0.58327376     0.42000
N507        N  0.58719354  0.48401316  0.57010652     0.00900
C508        C  0.99218132  0.38807979  0.89937072    -0.07000
H509        H  0.59713938  0.02914471  0.87433258     0.06400
C510        C  0.97234778  0.15133346  0.95420952    -0.07400
Co511      Co  0.57435557  0.42460210  0.99725217     0.74200
N512        N  0.58076069  0.49107273  0.92728650    -0.26500
Co513      Co  0.00007481  0.99789237  0.92783569     0.74100
C514        C  0.49955368  0.15468893  0.91784264     0.42100
N515        N  0.97479228  0.09711451  0.54601045     0.00500
N516        N  0.99471200  0.07659929  0.93061366     0.00600
N517        N  0.53665610  0.34152782  0.94699795    -0.47400
H518        H  0.69184870  0.44537809  0.52795664     0.06300
N519        N  0.60862951  0.46471532  0.95440181     0.00900
N520        N  0.92118360  0.00382751  0.93001073     0.00600
C521        C  0.84483335  0.49955257  0.91698607     0.42200
N522        N  0.00042551  0.06891647  0.57329532    -0.26000
C523        C  0.53787987  0.33668968  0.54557314    -0.06900
N524        N  0.61541155  0.00174316  0.59670939    -0.47100
N525        N  0.89228619  0.48712002  0.90354912    -0.47300
C526        C  0.01059036  0.33279982  0.58191581     0.42000
N527        N  0.53444749  0.39085714  0.95368187     0.00900
N528        N  0.92728554  0.99718484  0.57226929    -0.26000
N529        N  0.61206065  0.46042697  0.54099847    -0.26500
N530        N  0.89979251  0.02414090  0.54525957     0.00500
H531        H  0.91029781  0.45979835  0.62528492     0.06400
H532        H  0.81697628  0.04506639  0.97185732     0.06400
N533        N  0.50825740  0.41877427  0.92650417    -0.26600
N534        N  0.97074577  0.10146840  0.95954892    -0.26200
N535        N  0.51370476  0.41125705  0.56885409     0.00900
C536        C  0.66025978  0.98990247  0.91472426     0.42300
C537        C  0.51753657  0.09937790  0.60012655    -0.07400
N538        N  0.89662705  0.02820119  0.95892774    -0.26200
H539        H  0.95449920  0.18139159  0.97243740     0.06400
N540        N  0.65796605  0.46242404  0.94788746    -0.47400
H541        H  0.53862307  0.08714433  0.62649384     0.06400
C542        C  0.84772310  0.50046493  0.58506413     0.42100
C543        C  0.66182149  0.46253217  0.54644146    -0.06900
Co544      Co  0.50835635  0.49000584  0.57190533     0.73800
N545        N  0.97388542  0.14638727  0.55240690    -0.47100
C546        C  0.01049969  0.33708421  0.91343136     0.42400
N547        N  0.99750769  0.38032976  0.59517151    -0.47100
Co548      Co  0.93450242  0.06377702  0.50247900     0.73900
C549        C  0.84674641  0.02703661  0.95353266    -0.07400
C550        C  0.60926635  0.00814723  0.90067195    -0.07000
N551        N  0.53837113  0.38667239  0.54008200    -0.26500
N552        N  0.51157357  0.10708475  0.90445980    -0.47300
H553        H  0.97132779  0.40004244  0.87284658     0.06400
C554        C  0.89853387  0.48095756  0.59895795    -0.07400
Cl555      Cl  0.50322557  0.99434122  0.49991539    -0.50400
C556        C  0.50046575  0.15048078  0.58582332     0.42100
H557        H  0.55658977  0.30686402  0.52754772     0.06300
N558        N  0.85041415  0.02765644  0.55190246    -0.47100
C559        C  0.50707358  0.24358837  0.66483322     0.79700
N560        N  0.50690309  0.28724217  0.64381027    -0.78600
C561        C  0.50654592  0.28636633  0.60418019     0.82200
N562        N  0.50503184  0.24178940  0.58530466    -0.78500
C563        C  0.50432291  0.19817297  0.60601443     0.82300
N564        N  0.50584128  0.19909052  0.64561416    -0.80200
C565        C  0.50636564  0.24286269  0.83473029     0.79700
N566        N  0.50718424  0.28761328  0.85372563    -0.78600
C567        C  0.50749820  0.28903131  0.89333840     0.82200
N568        N  0.50598425  0.24566658  0.91423770    -0.78500
C569        C  0.50478982  0.20089380  0.89556211     0.82300
N570        N  0.50563914  0.19954130  0.85597193    -0.80200
C571        C  0.75612087  0.49733153  0.66509211     0.79700
N572        N  0.80000224  0.49834142  0.64532643    -0.78600
C573        C  0.80004247  0.49878509  0.60572420     0.82200
N574        N  0.75597857  0.49725245  0.58553852    -0.78500
C575        C  0.71187501  0.49589394  0.60492485     0.82300
N576        N  0.71193131  0.49651457  0.64462600    -0.80200
C577        C  0.75354041  0.49620187  0.83486498     0.79700
N578        N  0.79779966  0.49590259  0.85538849    -0.78600
C579        C  0.79804801  0.49463174  0.89504923     0.82200
N580        N  0.75403625  0.49247346  0.91437009    -0.78500
C581        C  0.70988498  0.49191654  0.89409616     0.82300
N582        N  0.70971991  0.49425737  0.85450682    -0.80200
C583        C  0.75634042  0.49692089  0.70857223    -0.00600
C584        C  0.71069609  0.02113417  0.72818743    -0.12500
C585        C  0.70897736  0.02201943  0.76908434     0.01600
C586        C  0.75345482  0.49777792  0.79144605    -0.00700
C587        C  0.79689531  0.47591525  0.77196194    -0.12500
C588        C  0.79879976  0.47526071  0.73113104     0.01500
H589        H  0.67813668  0.03870692  0.71141393     0.14500
H590        H  0.82946929  0.45835039  0.78873062     0.14500
C591        C  0.84438394  0.45036228  0.71360796     0.36100
C592        C  0.66412915  0.04809497  0.78688997     0.36000
N593        N  0.88115780  0.43031595  0.69998219    -0.44200
N594        N  0.62815190  0.06928135  0.80089417    -0.44200
C595        C  0.50774941  0.24406223  0.70831297    -0.00600
C596        C  0.98825506  0.20461046  0.72851508    -0.12500
C597        C  0.98732933  0.20316066  0.76938228     0.01600
C598        C  0.50656980  0.24179314  0.79125797    -0.00700
C599        C  0.52644301  0.28099814  0.77106906    -0.12500
C600        C  0.52737831  0.28245022  0.73020705     0.01500
H601        H  0.97271163  0.17498765  0.71230354     0.14500
H602        H  0.54204977  0.31057093  0.78728669     0.14500
C603        C  0.55030563  0.32301486  0.71192840     0.36100
C604        C  0.96463219  0.16241619  0.78764392     0.35500
N605        N  0.56871278  0.35555773  0.69737262    -0.44200
N606        N  0.94641335  0.12973181  0.80217866    -0.44200
C607        C  0.66533413  0.48934981  0.08308552     0.42000
N608        N  0.58502172  0.98427487  0.07037435     0.00900
C609        C  0.99090390  0.88835710  0.39933107    -0.07000
H610        H  0.59943282  0.52865408  0.37417307     0.06400
C611        C  0.97394321  0.65117632  0.45403636    -0.07400
Co612      Co  0.57242018  0.92540439  0.49736678     0.74200
N613        N  0.57860137  0.99184786  0.42734233    -0.26500
Co614      Co  0.00211471  0.49772887  0.42774007     0.74100
C615        C  0.50098336  0.65476985  0.41756054     0.42100
N616        N  0.97703726  0.59663043  0.04593162     0.00500
N617        N  0.99685521  0.57647282  0.43056173     0.00600
N618        N  0.53551147  0.84211682  0.44696715    -0.47400
H619        H  0.68980133  0.94643798  0.02811878     0.06300
N620        N  0.60655165  0.96566228  0.45449734     0.00900
N621        N  0.92322585  0.50381354  0.42990253     0.00600
C622        C  0.84270640  0.99982800  0.41710739     0.42200
N623        N  0.00270817  0.56846686  0.07321677    -0.26000
C624        C  0.53691755  0.83683198  0.04589841    -0.06900
N625        N  0.61777489  0.50087655  0.09650858    -0.47100
N626        N  0.89015992  0.98733279  0.40367708    -0.47300
C627        C  0.00988499  0.83279051  0.08229046     0.42000
N628        N  0.53272136  0.89145221  0.45378970     0.00900
N629        N  0.92959031  0.49666650  0.07222384    -0.26000
N630        N  0.60999764  0.96091875  0.04122119    -0.26500
N631        N  0.90202024  0.52363099  0.04526473     0.00500
H632        H  0.90785891  0.96051465  0.12544194     0.06400
H633        H  0.81898467  0.54483061  0.47179481     0.06400
N634        N  0.50646131  0.91924496  0.42657666    -0.26600
N635        N  0.97278560  0.60127309  0.45948859    -0.26200
N636        N  0.51173895  0.91130713  0.06897137     0.00900
C637        C  0.66240520  0.48910671  0.41455638     0.42300
C638        C  0.51946698  0.59892087  0.10021465    -0.07400
N639        N  0.89865473  0.52807149  0.45886466    -0.26200
H640        H  0.95580651  0.68116684  0.47218986     0.06400
N641        N  0.65586877  0.96356043  0.44796900    -0.47400
H642        H  0.54034645  0.58672897  0.12668164     0.06400
C643        C  0.84544228  0.00123267  0.08509614     0.42100
C644        C  0.65970525  0.96334198  0.04664768    -0.06900
Co645      Co  0.50617274  0.99010519  0.07206045     0.73800
N646        N  0.97574425  0.64590536  0.05245959    -0.47100
C647        C  0.00966858  0.83742379  0.41331106     0.42400
N648        N  0.99611955  0.88029211  0.09540145    -0.47100
Co649      Co  0.93669803  0.56331623  0.00243878     0.73900
C650        C  0.84877211  0.52688524  0.45344639    -0.07400
C651        C  0.61146177  0.50761526  0.40051459    -0.07000
N652        N  0.53668519  0.88686986  0.04025518    -0.26500
N653        N  0.51332811  0.60716874  0.40423024    -0.47300
H654        H  0.97026931  0.90023377  0.37269510     0.06400
C655        C  0.89619334  0.98148970  0.09901593    -0.07400
Cl656      Cl  0.50535973  0.49376543  0.99984838    -0.50400
C657        C  0.50208993  0.65002160  0.08599193     0.42100
H658        H  0.55610592  0.80714422  0.02799230     0.06300
N659        N  0.85264290  0.52680783  0.05186189    -0.47100
C660        C  0.50700539  0.74321368  0.16512674     0.79700
N661        N  0.50660883  0.78700316  0.14422990    -0.78600
C662        C  0.50641326  0.78615773  0.10459607     0.82200
N663        N  0.50555734  0.74149699  0.08569238    -0.78500
C664        C  0.50519244  0.69776467  0.10633036     0.82300
N665        N  0.50626535  0.69864609  0.14593774    -0.80200
C666        C  0.50621721  0.74336043  0.33448300     0.79700
N667        N  0.50686576  0.78812621  0.35345456    -0.78600
C668        C  0.50732750  0.78942324  0.39307042     0.82200
N669        N  0.50639765  0.74590922  0.41390765    -0.78500
C670        C  0.50553384  0.70109711  0.39520657     0.82300
N671        N  0.50597470  0.69985808  0.35559943    -0.80200
C672        C  0.75379859  0.99933296  0.16517457     0.79700
N673        N  0.79767464  0.00012286  0.14537403    -0.78600
C674        C  0.79772741  0.00004851  0.10578439     0.82200
N675        N  0.75367255  0.99825791  0.08564449    -0.78500
C676        C  0.70956243  0.99712574  0.10507003     0.82300
N677        N  0.70961268  0.99822146  0.14476277    -0.80200
C678        C  0.75128927  0.99783066  0.33492282     0.79700
N679        N  0.79560499  0.99702871  0.35545616    -0.78600
C680        C  0.79589163  0.99529615  0.39510591     0.82200
N681        N  0.75186064  0.99319493  0.41440172    -0.78500
C682        C  0.70765021  0.99313527  0.39412765     0.82300
N683        N  0.70744414  0.99592535  0.35454874    -0.80200
C684        C  0.75409608  0.99909975  0.20863785    -0.00600
C685        C  0.71310436  0.51920224  0.22803171    -0.12500
C686        C  0.71143741  0.52035827  0.26892589     0.01600
C687        C  0.75121731  0.99972943  0.29150442    -0.00700
C688        C  0.79467780  0.97796840  0.27198416    -0.12500
C689        C  0.79653215  0.97732073  0.23115771     0.01500
H690        H  0.68059409  0.53683737  0.21123626     0.14500
H691        H  0.82724344  0.96030896  0.28871477     0.14500
C692        C  0.84190564  0.95202929  0.21358549     0.36100
C693        C  0.66692996  0.54712318  0.28672723     0.36000
N694        N  0.87844732  0.93159598  0.19987990    -0.44200
N695        N  0.63133164  0.56893600  0.30081057    -0.44200
C696        C  0.50754021  0.74373977  0.20844856    -0.00600
C697        C  0.98181751  0.70858921  0.22861414    -0.12500
C698        C  0.98076919  0.70762939  0.26949072     0.01600
C699        C  0.50614231  0.74233769  0.29115999    -0.00700
C700        C  0.53203598  0.77727542  0.27098771    -0.12500
C701        C  0.53322198  0.77810251  0.23012612     0.01500
H702        H  0.96167637  0.68220492  0.21234455     0.14500
H703        H  0.55228625  0.80357706  0.28724410     0.14500
C704        C  0.56303401  0.81306862  0.21144821     0.36100
C705        C  0.95162227  0.67204844  0.28815520     0.35500
N706        N  0.58707488  0.84095425  0.19648960    -0.44200
N707        N  0.92821631  0.64358873  0.30310664    -0.44200
C708        C  0.66527940  0.48964100  0.58306497     0.42000
N709        N  0.58499057  0.98447167  0.57032317     0.00900
C710        C  0.99094041  0.88824577  0.89934108    -0.07000
H711        H  0.59938945  0.52854709  0.87425974     0.06400
C712        C  0.97391622  0.65106676  0.95402170    -0.07400
Co713      Co  0.57251094  0.92519855  0.99741503     0.74200
N714        N  0.57869954  0.99163987  0.92739760    -0.26500
Co715      Co  0.00208713  0.49762136  0.92772062     0.74100
C716        C  0.50097258  0.65456018  0.91758573     0.42100
N717        N  0.97700177  0.59677737  0.54593758     0.00500
N718        N  0.99681459  0.57636696  0.93053597     0.00600
N719        N  0.53559059  0.84189366  0.94702582    -0.47400
H720        H  0.68975752  0.94650650  0.52809655     0.06300
N721        N  0.60665472  0.96545960  0.95455192     0.00900
N722        N  0.92319891  0.50369316  0.92989787     0.00600
C723        C  0.84280094  0.99976576  0.91710085     0.42200
N724        N  0.00267789  0.56861936  0.57322312    -0.26000
C725        C  0.53682316  0.83704474  0.54587916    -0.06900
N726        N  0.61771563  0.50114539  0.59648237    -0.47100
N727        N  0.89025311  0.98726230  0.90366538    -0.47300
C728        C  0.00989445  0.83294369  0.58231656     0.42000
N729        N  0.53283665  0.89123116  0.95383275     0.00900
N730        N  0.92953544  0.49685048  0.57224979    -0.26000
N731        N  0.60995059  0.96110146  0.54116902    -0.26500
N732        N  0.90197228  0.52379259  0.54527483     0.00500
H733        H  0.90788622  0.96064514  0.62548199     0.06400
H734        H  0.81897725  0.54470615  0.97181750     0.06400
N735        N  0.50656062  0.91902344  0.92662868    -0.26600
N736        N  0.97276770  0.60116152  0.95947525    -0.26200
N737        N  0.51168991  0.91152907  0.56895001     0.00900
C738        C  0.66237059  0.48897964  0.91462477     0.42300
C739        C  0.51941452  0.59915602  0.60015941    -0.07400
N740        N  0.89864198  0.52794817  0.95886689    -0.26200
H741        H  0.95579331  0.68105417  0.97218452     0.06400
N742        N  0.65597330  0.96337363  0.94802497    -0.47400
H743        H  0.54029862  0.58696787  0.62662507     0.06400
C744        C  0.84543185  0.00130729  0.58514079     0.42100
C745        C  0.65966940  0.96345339  0.54661461    -0.06900
Co746      Co  0.50614430  0.99032668  0.57201914     0.73800
N747        N  0.97570867  0.64605452  0.55245713    -0.47100
C748        C  0.00967559  0.83730854  0.91332736     0.42400
N749        N  0.99613721  0.88044580  0.59542989    -0.47100
Co750      Co  0.93668293  0.56345007  0.50244270     0.73900
C751        C  0.84875621  0.52676386  0.95346018    -0.07400
C752        C  0.61142442  0.50746625  0.90058012    -0.07000
N753        N  0.53660208  0.88708027  0.54022331    -0.26500
N754        N  0.51329763  0.60695792  0.90425220    -0.47300
H755        H  0.97030370  0.90012975  0.87270753     0.06400
C756        C  0.89619773  0.98160963  0.59905546    -0.07400
Cl757      Cl  0.50535132  0.49398338  0.49980772    -0.50400
C758        C  0.50202782  0.65025342  0.58593762     0.42100
H759        H  0.55598678  0.80734762  0.52796890     0.06300
N760        N  0.85259455  0.52701984  0.55188986    -0.47100
C761        C  0.50684801  0.74340259  0.66511491     0.79700
N762        N  0.50645904  0.78720678  0.64422990    -0.78600
C763        C  0.50631052  0.78638234  0.60459242     0.82200
N764        N  0.50547912  0.74173047  0.58567272    -0.78500
C765        C  0.50509862  0.69798882  0.60629313     0.82300
N766        N  0.50614156  0.69884818  0.64590047    -0.80200
C767        C  0.50625412  0.74319074  0.83452569     0.79700
N768        N  0.50689041  0.78794166  0.85352204    -0.78600
C769        C  0.50734703  0.78921569  0.89313811     0.82200
N770        N  0.50640576  0.74569314  0.91395931    -0.78500
C771        C  0.50554480  0.70089316  0.89524142     0.82300
N772        N  0.50600697  0.69967634  0.85563149    -0.80200
C773        C  0.75377672  0.99924264  0.66519954     0.79700
N774        N  0.79765726  0.00006580  0.64540992    -0.78600
C775        C  0.79771863  0.00005427  0.60581965     0.82200
N776        N  0.75366781  0.99829422  0.58566681    -0.78500
C777        C  0.70955290  0.99712918  0.60507887     0.82300
N778        N  0.70959379  0.99816488  0.64477433    -0.80200
C779        C  0.75132056  0.99779026  0.83495404     0.79700
N780        N  0.79564937  0.99699937  0.85546915    -0.78600
C781        C  0.79597167  0.99522325  0.89511800     0.82200
N782        N  0.75196096  0.99306657  0.91443248    -0.78500
C783        C  0.70773683  0.99299715  0.89417550     0.82300
N784        N  0.70749766  0.99583396  0.85459722    -0.80200
C785        C  0.75406526  0.99898950  0.70866500    -0.00600
C786        C  0.71294341  0.51906799  0.72807571    -0.12500
C787        C  0.71126399  0.52015200  0.76897135     0.01600
C788        C  0.75122116  0.99967824  0.79153469    -0.00700
C789        C  0.79467537  0.97791393  0.77200993    -0.12500
C790        C  0.79650985  0.97722849  0.73118404     0.01500
H791        H  0.68040848  0.53666970  0.71129079     0.14500
H792        H  0.82725145  0.96027226  0.78873778     0.14500
C793        C  0.84187208  0.95190824  0.71361529     0.36100
C794        C  0.66667484  0.54675085  0.78677804     0.36000
N795        N  0.87840731  0.93144480  0.69992072    -0.44200
N796        N  0.63099742  0.56842219  0.80085472    -0.44200
C797        C  0.50740265  0.74386899  0.70845174    -0.00600
C798        C  0.98181342  0.70867867  0.72859680    -0.12500
C799        C  0.98079279  0.70766208  0.76947185     0.01600
C800        C  0.50616371  0.74222254  0.79118691    -0.00700
C801        C  0.53167049  0.77748934  0.77102836    -0.12500
C802        C  0.53278237  0.77843829  0.73016325     0.01500
H803        H  0.96161311  0.68235560  0.71231209     0.14500
H804        H  0.55168149  0.80397104  0.78729621     0.14500
C805        C  0.56222253  0.81376081  0.71151761     0.36100
C806        C  0.95159317  0.67211403  0.78811982     0.35500
N807        N  0.58596302  0.84192818  0.69657425    -0.44200
N808        N  0.92814780  0.64368308  0.80306408    -0.44200
loop_ 
_geom_bond_atom_site_label_1 
_geom_bond_atom_site_label_2 
_geom_bond_distance 
_geom_bond_site_symmetry_2 
_ccdc_geom_bond_type 
C1           N19   1.349   1_565  A
C1          C240   1.457       .  S
C1          C272   1.465       .  S
N2           N24   1.320       .  A
N2          N221   1.326       .  A
N2          Co39   2.081       .  S
C3          N432   1.340       .  A
C3           C41   1.456       .  S
C3           H48   1.082       .  S
H4           C45   1.081       .  S
C5           N29   1.341       .  A
C5          C413   1.457       .  S
C5           H34   1.082       .  S
Co6          N14   2.091       .  S
Co6          N22   2.089       .  S
Co6         N125   2.087       .  S
Co6         N147   2.086       .  S
Co6        Cl353   2.428       .  S
N7          C247   1.339       .  A
N7           N14   1.320       .  A
N7         Co614   2.075       .  S
Co8          N11   2.078   1_565  S
Co8          N15   2.083   1_565  S
Co8         N613   2.074       .  S
Co8         N634   2.077       .  S
Co8        Cl555   2.470       .  S
C9           N47   1.348   1_655  A
C9           C64   1.462   1_655  S
C9          C409   1.457       .  S
N10          N17   1.320       .  A
N10          N40   1.324       .  A
N10         Co43   2.088       .  S
N11          N29   1.320       .  A
N11         N451   1.324       .  A
N12         C445   1.348       .  A
N12          N22   1.324       .  A
H13          C38   1.081       .  S
N14          N35   1.326       .  A
N15          N33   1.320       .  A
N15         N222   1.326   1_545  A
C16          N20   1.350       .  A
C16          C74   1.463       .  S
C16         C246   1.455       .  S
N17         C436   1.339       .  A
N17        Co645   2.074   1_545  S
C18          N46   1.340       .  A
C18         C425   1.456       .  S
C18          H52   1.082       .  S
N19         N204   1.326   1_545  A
N20         N217   1.325       .  A
C21          N42   1.349       .  A
C21         C422   1.456       .  S
C21         C460   1.462       .  S
N22          N28   1.320       .  A
N23         C251   1.339       .  A
N23          N25   1.320   1_565  A
N23        Co645   2.079       .  S
N24          C38   1.340       .  A
N24        Co107   2.087   1_554  S
N25          N53   1.326       .  A
N25         Co43   2.088       .  S
H26          C49   1.081       .  S
H27          C44   1.082       .  S
N28         C407   1.340   1_455  A
N28        Co614   2.077       .  S
N29        Co144   2.085       .  S
N30          N46   1.320       .  A
N30         N446   1.325   1_455  A
N30         Co39   2.080       .  S
C31         N237   1.350       .  A
C31          C45   1.454   1_565  S
C31         C278   1.463       .  S
C32         N421   1.339       .  A
C32          C51   1.455       .  S
C32          H36   1.082       .  S
N33          C44   1.339       .  A
N33        Co144   2.084       .  S
N35         C233   1.350       .  A
C37         N255   1.349       .  A
C37          C49   1.456       .  S
C37          C68   1.464       .  S
C38         C203   1.457       .  S
Co39        N623   2.075       .  S
Co39        N629   2.078   1_455  S
Co39       Cl252   2.470   1_554  S
N40         C455   1.349       .  A
C41         N416   1.348       .  A
C41         C466   1.462       .  S
N42         N434   1.325       .  A
Co43        N130   2.085   1_554  S
Co43        N134   2.084   1_554  S
Co43       Cl454   2.429   1_544  S
C44         C218   1.455   1_545  S
C45         N209   1.339   1_545  A
N46        Co107   2.086   1_554  S
N47         N415   1.324   1_455  A
C49         N225   1.339       .  A
Cl50       Co309   2.428       .  S
Cl50       Co513   2.470       .  S
Cl50       Co241   2.470   1_556  S
Cl50       Co447   2.429   1_466  S
C51         N444   1.349   1_455  A
C51          C58   1.460       .  S
N53         C239   1.349       .  A
C54          N55   1.359       .  A
C54          N59   1.359       .  A
C54          C90   1.488       .  S
N55          C56   1.357       .  A
C56          N57   1.356       .  A
C56         C425   1.462       .  S
N57          C58   1.356       .  A
C58          N59   1.356       .  A
C60          N61   1.360       .  A
C60          N65   1.359       .  A
C60          C93   1.488       .  S
N61          C62   1.357       .  A
C62          N63   1.357       .  A
C62         C445   1.462       .  S
N63          C64   1.356       .  A
C64          N65   1.357       .  A
C66          N67   1.358       .  A
C66          N71   1.361       .  A
C66          C78   1.489       .  S
N67          C68   1.356       .  A
C68          N69   1.356       .  A
N69          C70   1.358       .  A
C70          N71   1.360       .  A
C70         C203   1.465       .  S
C72          N73   1.360       .  A
C72          N77   1.358       .  A
C72          C81   1.487       .  S
N73          C74   1.358       .  A
C74          N75   1.358       .  A
N75          C76   1.356       .  A
C76          N77   1.356       .  A
C76         C233   1.463       .  S
C78          C83   1.417       .  A
C78         C281   1.405       .  A
C79          H84   1.085       .  S
C79          C80   1.402       .  A
C79         C280   1.405   1_545  A
C80         C283   1.416   1_545  A
C80          C87   1.445       .  S
C81          C82   1.403       .  A
C81         C282   1.416       .  A
C82          H85   1.085       .  S
C82          C83   1.400       .  A
C83          C86   1.444       .  S
C86          N88   1.157       .  T
C87          N89   1.157       .  T
C90          C95   1.415       .  A
C90         C495   1.406   1_455  A
C91          H96   1.085       .  S
C91          C92   1.400       .  A
C91         C494   1.406       .  A
C92         C497   1.416       .  A
C92          C99   1.445       .  S
C93          C94   1.406       .  A
C93         C496   1.416   1_455  A
C94          H97   1.085       .  S
C94          C95   1.400       .  A
C95          C98   1.445       .  S
C98         N100   1.157       .  T
C99         N101   1.158       .  T
C102        N120   1.349   1_565  A
C102        C341   1.457       .  S
C102        C373   1.466       .  S
N103        N322   1.326       .  A
N103        N125   1.320       .  A
N103       Co140   2.082       .  S
C104        N533   1.340       .  A
C104        C142   1.456       .  S
C104        H149   1.082       .  S
H105        C146   1.081       .  S
C106        N130   1.341       .  A
C106        C514   1.457       .  S
C106        H135   1.082       .  S
Co107       N115   2.091       .  S
Co107       N123   2.089       .  S
Co107      Cl252   2.428       .  S
N108        C348   1.339       .  A
N108        N115   1.320       .  A
N108       Co715   2.075       .  S
Co109       N714   2.074       .  S
Co109       N112   2.078   1_565  S
Co109       N735   2.077       .  S
Co109       N116   2.083   1_565  S
Co109      Cl454   2.470       .  S
C110        N148   1.348   1_655  A
C110        C510   1.457       .  S
C110        C165   1.462   1_655  S
N111        N118   1.320       .  A
N111        N141   1.324       .  A
N111       Co144   2.088       .  S
N112        N130   1.320       .  A
N112        N552   1.324       .  A
N113        C546   1.348       .  A
N113        N123   1.324       .  A
H114        C139   1.081       .  S
N115        N136   1.326       .  A
N116        N134   1.320       .  A
N116        N323   1.326   1_545  A
C117        N121   1.350       .  A
C117        C347   1.456       .  S
C117        C175   1.464       .  S
N118        C537   1.339       .  A
N118       Co746   2.074   1_545  S
C119        N147   1.340       .  A
C119        C526   1.456       .  S
C119        H153   1.082       .  S
N120        N305   1.326   1_545  A
N121        N318   1.325       .  A
C122        N143   1.349       .  A
C122        C523   1.456       .  S
C122        C561   1.462       .  S
N123        N129   1.320       .  A
N124        C352   1.339       .  A
N124        N126   1.320   1_565  A
N124       Co746   2.079       .  S
N125        C139   1.340       .  A
N126        N154   1.326       .  A
N126       Co144   2.088       .  S
H127        C150   1.081       .  S
H128        C145   1.082       .  S
N129        C508   1.340   1_455  A
N129       Co715   2.077       .  S
N131        N547   1.325   1_455  A
N131        N147   1.320       .  A
N131       Co140   2.080       .  S
C132        N338   1.350       .  A
C132        C146   1.454   1_565  S
C132        C379   1.463       .  S
C133        N522   1.339       .  A
C133        C152   1.455       .  S
C133        H137   1.082       .  S
N134        C145   1.339       .  A
N136        C334   1.350       .  A
C138        N356   1.349       .  A
C138        C150   1.456       .  S
C138        C169   1.464       .  S
C139        C304   1.457       .  S
Co140       N724   2.075       .  S
Co140       N730   2.078   1_455  S
Co140      Cl353   2.470       .  S
N141        C556   1.349       .  A
C142        N517   1.348       .  A
C142        C567   1.462       .  S
N143        N535   1.325       .  A
Co144      Cl555   2.429   1_545  S
C145        C319   1.455   1_545  S
C146        N310   1.339   1_545  A
N148        N516   1.324   1_455  A
C150        N326   1.339       .  A
Cl151      Co208   2.428       .  S
Cl151      Co412   2.470   1_455  S
Cl151      Co342   2.470       .  S
Cl151      Co548   2.429   1_465  S
C152        N545   1.349   1_455  A
C152        C159   1.460       .  S
N154        C340   1.349       .  A
C155        N156   1.359       .  A
C155        N160   1.359       .  A
C155        C191   1.489       .  S
N156        C157   1.357       .  A
C157        N158   1.356       .  A
C157        C526   1.462       .  S
N158        C159   1.356       .  A
C159        N160   1.356       .  A
C161        N162   1.360       .  A
C161        N166   1.359       .  A
C161        C194   1.489       .  S
N162        C163   1.357       .  A
C163        N164   1.356       .  A
C163        C546   1.462       .  S
N164        C165   1.356       .  A
C165        N166   1.357       .  A
C167        N168   1.358       .  A
C167        N172   1.361       .  A
C167        C179   1.489       .  S
N168        C169   1.356       .  A
C169        N170   1.356       .  A
N170        C171   1.358       .  A
C171        N172   1.359       .  A
C171        C304   1.465       .  S
C173        N174   1.361       .  A
C173        N178   1.358       .  A
C173        C182   1.487       .  S
N174        C175   1.358       .  A
C175        N176   1.358       .  A
N176        C177   1.356       .  A
C177        N178   1.356       .  A
C177        C334   1.463       .  S
C179        C382   1.405       .  A
C179        C184   1.417       .  A
C180        H185   1.085       .  S
C180        C381   1.405   1_545  A
C180        C181   1.402       .  A
C181        C384   1.416   1_545  A
C181        C188   1.445       .  S
C182        C383   1.416       .  A
C182        C183   1.404       .  A
C183        H186   1.085       .  S
C183        C184   1.400       .  A
C184        C187   1.444       .  S
C187        N189   1.157       .  T
C188        N190   1.157       .  T
C191        C596   1.406   1_455  A
C191        C196   1.415       .  A
C192        H197   1.085       .  S
C192        C595   1.406       .  A
C192        C193   1.400       .  A
C193        C598   1.416       .  A
C193        C200   1.445       .  S
C194        C597   1.416   1_455  A
C194        C195   1.406       .  A
C195        H198   1.085       .  S
C195        C196   1.400       .  A
C196        C199   1.445       .  S
C199        N201   1.157       .  T
C200        N202   1.158       .  T
C203        N221   1.349       .  A
N204        N226   1.320       .  A
N204       Co241   2.082       .  S
C205        N634   1.340       .  A
C205        C243   1.456       .  S
C205        H250   1.082       .  S
H206        C247   1.081       .  S
C207        N231   1.340       .  A
C207        C615   1.457       .  S
C207        H236   1.082       .  S
Co208       N327   2.087       .  S
Co208       N216   2.092       .  S
Co208       N349   2.086       .  S
Co208       N224   2.089       .  S
N209        N216   1.320       .  A
N209       Co412   2.074   1_455  S
Co210       N411   2.075       .  S
Co210       N213   2.080       .  S
Co210       N432   2.077       .  S
Co210       N217   2.083       .  S
Co210      Cl757   2.470       .  S
C211        N249   1.349       .  A
C211        C611   1.457   1_455  S
C211        C266   1.463       .  S
N212        N219   1.320       .  A
N212        N242   1.324       .  A
N212       Co245   2.088       .  S
N213        N231   1.320       .  A
N213        N653   1.325       .  A
N214        C647   1.348       .  A
N214        N224   1.324       .  A
H215        C240   1.081       .  S
N216        N237   1.326       .  A
N217        N235   1.320       .  A
C218        N222   1.350       .  A
C218        C276   1.463       .  S
N219        C638   1.339       .  A
N219       Co443   2.075       .  S
C220        N248   1.340       .  A
C220        C627   1.456       .  S
C220        H254   1.082       .  S
C223        N244   1.349       .  A
C223        C624   1.456       .  S
C223        C662   1.463       .  S
N224        N230   1.321       .  A
N225        N227   1.320       .  A
N225       Co443   2.078       .  S
N226        C240   1.340       .  A
N226       Co309   2.087   1_554  S
N227        N255   1.326       .  A
N227       Co245   2.090       .  S
H228        C251   1.081       .  S
H229        C246   1.082       .  S
N230        C609   1.340   1_455  A
N230       Co412   2.077   1_455  S
N231       Co346   2.085       .  S
N232        N648   1.325   1_455  A
N232        N248   1.320       .  A
N232       Co241   2.081       .  S
C233        C247   1.455       .  S
C234        N623   1.339       .  A
C234        C253   1.455       .  S
C234        H238   1.082       .  S
N235        C246   1.339       .  A
N235       Co346   2.084       .  S
C239        C251   1.456   1_545  S
C239        C270   1.464   1_545  S
Co241       N421   2.074   1_565  S
Co241       N427   2.079   1_455  S
N242        C657   1.348       .  A
C243        N618   1.348       .  A
C243        C668   1.462       .  S
N244        N636   1.325       .  A
Co245       N332   2.085   1_554  S
Co245       N336   2.084   1_554  S
Co245      Cl656   2.429   1_554  S
N248       Co309   2.086   1_554  S
N249        N617   1.325   1_455  A
Cl252      Co715   2.470       .  S
Cl252      Co649   2.429   1_456  S
C253        N646   1.348   1_455  A
C253        C260   1.460       .  S
C256        N257   1.360       .  A
C256        N261   1.359       .  A
C256        C292   1.484       .  S
N257        C258   1.357       .  A
C258        N259   1.356       .  A
C258        C627   1.463       .  S
N259        C260   1.356       .  A
C260        N261   1.356       .  A
C262        N263   1.359       .  A
C262        N267   1.359       .  A
C262        C295   1.484       .  S
N263        C264   1.357       .  A
C264        N265   1.356       .  A
C264        C647   1.462       .  S
N265        C266   1.357       .  A
C266        N267   1.357       .  A
C268        N269   1.358   1_565  A
C268        N273   1.361       .  A
C268        C280   1.488       .  S
N269        C270   1.356   1_545  A
C270        N271   1.356       .  A
N271        C272   1.358       .  A
C272        N273   1.359       .  A
C274        N275   1.361       .  A
C274        N279   1.358       .  A
C274        C283   1.487       .  S
N275        C276   1.358       .  A
C276        N277   1.358       .  A
N277        C278   1.356       .  A
C278        N279   1.357       .  A
C280        C285   1.417       .  A
C281        H286   1.085       .  S
C281        C282   1.402       .  A
C282        C289   1.445       .  S
C283        C284   1.404       .  A
C284        H287   1.085       .  S
C284        C285   1.399       .  A
C285        C288   1.444       .  S
C288        N290   1.157       .  T
C289        N291   1.157       .  T
C292        C697   1.405   1_455  A
C292        C297   1.414       .  A
C293        H298   1.085       .  S
C293        C696   1.405       .  A
C293        C294   1.400       .  A
C294        C699   1.414       .  A
C294        C301   1.445       .  S
C295        C698   1.414   1_455  A
C295        C296   1.405       .  A
C296        H299   1.085       .  S
C296        C297   1.400       .  A
C297        C300   1.444       .  S
C300        N302   1.157       .  T
C301        N303   1.157       .  T
C304        N322   1.349       .  A
N305        N327   1.320       .  A
N305       Co342   2.082       .  S
C306        N735   1.340       .  A
C306        C344   1.456       .  S
C306        H351   1.082       .  S
H307        C348   1.081       .  S
C308        N332   1.340       .  A
C308        C716   1.457       .  S
C308        H337   1.082       .  S
Co309       N317   2.092       .  S
Co309       N325   2.088       .  S
N310        N317   1.320       .  A
N310       Co513   2.074       .  S
Co311       N512   2.075       .  S
Co311       N314   2.080       .  S
Co311       N533   2.077       .  S
Co311       N318   2.083       .  S
Co311      Cl656   2.470       .  S
C312        N350   1.349       .  A
C312        C712   1.457   1_455  S
C312        C367   1.463       .  S
N313        N320   1.320       .  A
N313        N343   1.324       .  A
N313       Co346   2.088       .  S
N314        N332   1.320       .  A
N314        N754   1.325       .  A
N315        C748   1.348       .  A
N315        N325   1.324       .  A
H316        C341   1.081       .  S
N317        N338   1.326       .  A
N318        N336   1.320       .  A
C319        N323   1.350       .  A
C319        C377   1.463       .  S
N320        C739   1.339       .  A
N320       Co544   2.074       .  S
C321        N349   1.340       .  A
C321        C728   1.456       .  S
C321        H355   1.082       .  S
C324        N345   1.349       .  A
C324        C725   1.456       .  S
C324        C763   1.463       .  S
N325        N331   1.321       .  A
N326        N328   1.320       .  A
N326       Co544   2.078       .  S
N327        C341   1.340       .  A
N328        N356   1.326       .  A
N328       Co346   2.090       .  S
H329        C352   1.081       .  S
H330        C347   1.082       .  S
N331        C710   1.340   1_455  A
N331       Co513   2.077       .  S
N333        N749   1.325   1_455  A
N333        N349   1.320       .  A
N333       Co342   2.081       .  S
C334        C348   1.455       .  S
C335        N724   1.339       .  A
C335        C354   1.455       .  S
C335        H339   1.082       .  S
N336        C347   1.339       .  A
C340        C352   1.456   1_545  S
C340        C371   1.463       .  S
Co342       N522   2.073   1_565  S
Co342       N528   2.079   1_455  S
N343        C758   1.348       .  A
C344        N719   1.348       .  A
C344        C769   1.462       .  S
N345        N737   1.325       .  A
Co346      Cl757   2.429       .  S
N350        N718   1.325   1_455  A
Cl353      Co614   2.470       .  S
Cl353      Co750   2.429   1_455  S
C354        N747   1.348   1_455  A
C354        C361   1.460       .  S
C357        N358   1.360       .  A
C357        N362   1.359       .  A
C357        C393   1.483       .  S
N358        C359   1.357       .  A
C359        N360   1.356       .  A
C359        C728   1.463       .  S
N360        C361   1.356       .  A
C361        N362   1.356       .  A
C363        N364   1.359       .  A
C363        N368   1.359       .  A
C363        C396   1.484       .  S
N364        C365   1.357       .  A
C365        N366   1.356       .  A
C365        C748   1.462       .  S
N366        C367   1.357       .  A
C367        N368   1.357       .  A
C369        N370   1.358   1_565  A
C369        N374   1.361       .  A
C369        C381   1.488       .  S
N370        C371   1.356       .  A
C371        N372   1.356   1_545  A
N372        C373   1.358       .  A
C373        N374   1.360       .  A
C375        N376   1.361       .  A
C375        N380   1.358       .  A
C375        C384   1.487       .  S
N376        C377   1.358       .  A
C377        N378   1.358       .  A
N378        C379   1.356       .  A
C379        N380   1.357       .  A
C381        C386   1.417       .  A
C382        H387   1.085       .  S
C382        C383   1.402       .  A
C383        C390   1.445       .  S
C384        C385   1.404       .  A
C385        H388   1.085       .  S
C385        C386   1.399       .  A
C386        C389   1.444       .  S
C389        N391   1.157       .  T
C390        N392   1.157       .  T
C393        C798   1.405   1_455  A
C393        C398   1.414       .  A
C394        H399   1.085       .  S
C394        C797   1.405       .  A
C394        C395   1.400       .  A
C395        C800   1.415       .  A
C395        C402   1.445       .  S
C396        C799   1.414   1_455  A
C396        C397   1.405       .  A
C397        H400   1.085       .  S
C397        C398   1.400       .  A
C398        C401   1.444       .  S
C401        N403   1.157       .  T
C402        N404   1.157       .  T
C405        N423   1.349   1_565  A
C405        C644   1.457       .  S
C405        C676   1.466       .  S
N406        N625   1.326       .  A
N406        N428   1.320       .  A
N406       Co443   2.082       .  S
C407        C445   1.456   1_655  S
C407        H452   1.082       .  S
H408        C449   1.081       .  S
C409        N433   1.341       .  A
C409        H438   1.082       .  S
Co410       N529   2.087       .  S
Co410       N418   2.091       .  S
Co410       N551   2.086       .  S
Co410       N426   2.089       .  S
Co410      Cl757   2.428       .  S
N411        C651   1.339       .  A
N411        N418   1.320       .  A
Co412       N415   2.079   1_565  S
Co412       N419   2.083   1_565  S
C413        N451   1.348       .  A
C413        C468   1.462       .  S
N414        N421   1.320   1_655  A
N414        N444   1.324       .  A
N414       Co447   2.088       .  S
N415        N433   1.320       .  A
N416        N426   1.324       .  A
H417        C442   1.081       .  S
N418        N439   1.326       .  A
N419        N437   1.320       .  A
N419        N626   1.326   1_545  A
C420        N424   1.350       .  A
C420        C650   1.455       .  S
C420        C478   1.463       .  S
C422        N450   1.340       .  A
C422        H456   1.082       .  S
N423        N608   1.326   1_545  A
N424        N621   1.325       .  A
C425        N446   1.349   1_455  A
N426        N432   1.320       .  A
N427        C655   1.339       .  A
N427        N429   1.320   1_565  A
N428        C442   1.340       .  A
N428       Co511   2.087   1_554  S
N429        N457   1.326       .  A
N429       Co447   2.088       .  S
H430        C453   1.081       .  S
H431        C448   1.082       .  S
N433       Co548   2.085       .  S
N434        N450   1.320       .  A
N434       Co443   2.080       .  S
C435        N641   1.350       .  A
C435        C449   1.454   1_565  S
C435        C682   1.463       .  S
C436        C455   1.455       .  S
C436        H440   1.082       .  S
N437        C448   1.339       .  A
N437       Co548   2.084       .  S
N439        C637   1.350       .  A
C441        N659   1.349       .  A
C441        C453   1.456       .  S
C441        C472   1.464       .  S
C442        C607   1.457       .  S
Co443      Cl656   2.470   1_554  S
Co447       N534   2.085   1_554  S
Co447       N538   2.084   1_554  S
C448        C622   1.455   1_545  S
C449        N613   1.339   1_545  A
N450       Co511   2.086   1_554  S
C453        N629   1.339       .  A
Cl454      Co713   2.428       .  S
Cl454      Co645   2.470   1_556  S
C455        C462   1.460       .  S
N457        C643   1.349       .  A
C458        N459   1.359       .  A
C458        N463   1.359       .  A
C458        C494   1.488       .  S
N459        C460   1.357       .  A
C460        N461   1.356       .  A
N461        C462   1.356       .  A
C462        N463   1.356       .  A
C464        N465   1.360       .  A
C464        N469   1.359       .  A
C464        C497   1.489       .  S
N465        C466   1.357       .  A
C466        N467   1.356       .  A
N467        C468   1.356       .  A
C468        N469   1.357       .  A
C470        N471   1.358       .  A
C470        N475   1.361       .  A
C470        C482   1.489       .  S
N471        C472   1.356       .  A
C472        N473   1.356       .  A
N473        C474   1.358       .  A
C474        N475   1.360       .  A
C474        C607   1.465       .  S
C476        N477   1.360       .  A
C476        N481   1.358       .  A
C476        C485   1.487       .  S
N477        C478   1.358       .  A
C478        N479   1.358       .  A
N479        C480   1.356       .  A
C480        N481   1.356       .  A
C480        C637   1.463       .  S
C482        C685   1.405       .  A
C482        C487   1.417       .  A
C483        H488   1.085       .  S
C483        C684   1.405   1_545  A
C483        C484   1.402       .  A
C484        C687   1.416   1_545  A
C484        C491   1.445       .  S
C485        C686   1.416       .  A
C485        C486   1.404       .  A
C486        H489   1.085       .  S
C486        C487   1.400       .  A
C487        C490   1.444       .  S
C490        N492   1.157       .  T
C491        N493   1.157       .  T
C494        C499   1.415       .  A
C495        H500   1.085       .  S
C495        C496   1.400       .  A
C496        C503   1.445       .  S
C497        C498   1.406       .  A
C498        H501   1.085       .  S
C498        C499   1.400       .  A
C499        C502   1.445       .  S
C502        N504   1.157       .  T
C503        N505   1.158       .  T
C506        N524   1.349   1_565  A
C506        C745   1.457       .  S
C506        C777   1.466       .  S
N507        N726   1.326       .  A
N507        N529   1.320       .  A
N507       Co544   2.081       .  S
C508        C546   1.456   1_655  S
C508        H553   1.082       .  S
H509        C550   1.081       .  S
C510        N534   1.341       .  A
C510        H539   1.082       .  S
Co511       N519   2.091       .  S
Co511       N527   2.089       .  S
Co511      Cl656   2.428       .  S
N512        C752   1.339       .  A
N512        N519   1.320       .  A
Co513       N516   2.078   1_465  S
Co513       N520   2.083   1_465  S
C514        N552   1.348       .  A
C514        C569   1.462       .  S
N515        N522   1.320   1_655  A
N515        N545   1.324       .  A
N515       Co548   2.088       .  S
N516        N534   1.320       .  A
N517        N527   1.324       .  A
H518        C543   1.081       .  S
N519        N540   1.326       .  A
N520        N538   1.320       .  A
N520        N727   1.326   1_545  A
C521        N525   1.350       .  A
C521        C751   1.456       .  S
C521        C579   1.464       .  S
C523        N551   1.340       .  A
C523        H557   1.082       .  S
N524        N709   1.326   1_545  A
N525        N722   1.326       .  A
C526        N547   1.349   1_455  A
N527        N533   1.320       .  A
N528        C756   1.339       .  A
N528        N530   1.320   1_565  A
N529        C543   1.340       .  A
N530        N558   1.326       .  A
N530       Co548   2.088       .  S
H531        C554   1.081       .  S
H532        C549   1.082       .  S
N535        N551   1.320       .  A
N535       Co544   2.080       .  S
C536        N742   1.350       .  A
C536        C550   1.454   1_565  S
C536        C783   1.463       .  S
C537        C556   1.455       .  S
C537        H541   1.082       .  S
N538        C549   1.339       .  A
N540        C738   1.350       .  A
C542        N760   1.349       .  A
C542        C554   1.456       .  S
C542        C573   1.464       .  S
C543        C708   1.457       .  S
Co544      Cl757   2.470       .  S
C549        C723   1.455   1_545  S
C550        N714   1.339   1_545  A
C554        N730   1.339       .  A
Cl555      Co612   2.428       .  S
Cl555      Co746   2.470       .  S
C556        C563   1.460       .  S
N558        C744   1.349       .  A
C559        N560   1.359       .  A
C559        N564   1.359       .  A
C559        C595   1.489       .  S
N560        C561   1.357       .  A
C561        N562   1.356       .  A
N562        C563   1.356       .  A
C563        N564   1.356       .  A
C565        N566   1.360       .  A
C565        N570   1.359       .  A
C565        C598   1.489       .  S
N566        C567   1.357       .  A
C567        N568   1.356       .  A
N568        C569   1.356       .  A
C569        N570   1.357       .  A
C571        N572   1.358       .  A
C571        N576   1.361       .  A
C571        C583   1.489       .  S
N572        C573   1.356       .  A
C573        N574   1.356       .  A
N574        C575   1.358       .  A
C575        N576   1.360       .  A
C575        C708   1.465       .  S
C577        N578   1.361       .  A
C577        N582   1.358       .  A
C577        C586   1.487       .  S
N578        C579   1.358       .  A
C579        N580   1.358       .  A
N580        C581   1.356       .  A
C581        N582   1.356       .  A
C581        C738   1.463       .  S
C583        C786   1.405       .  A
C583        C588   1.417       .  A
C584        H589   1.085       .  S
C584        C785   1.405   1_545  A
C584        C585   1.402       .  A
C585        C788   1.416   1_545  A
C585        C592   1.445       .  S
C586        C787   1.416       .  A
C586        C587   1.404       .  A
C587        H590   1.085       .  S
C587        C588   1.400       .  A
C588        C591   1.444       .  S
C591        N593   1.157       .  T
C592        N594   1.157       .  T
C595        C600   1.415       .  A
C596        H601   1.085       .  S
C596        C597   1.400       .  A
C597        C604   1.445       .  S
C598        C599   1.406       .  A
C599        H602   1.085       .  S
C599        C600   1.400       .  A
C600        C603   1.445       .  S
C603        N605   1.157       .  T
C604        N606   1.158       .  T
C607        N625   1.349       .  A
N608        N630   1.320       .  A
N608       Co645   2.082       .  S
C609        C647   1.456   1_655  S
C609        H654   1.082       .  S
H610        C651   1.081       .  S
C611        N635   1.340       .  A
C611        H640   1.082       .  S
Co612       N731   2.087       .  S
Co612       N620   2.092       .  S
Co612       N753   2.086       .  S
Co612       N628   2.089       .  S
N613        N620   1.320       .  A
Co614       N617   2.080   1_455  S
Co614       N621   2.083   1_455  S
C615        N653   1.349       .  A
C615        C670   1.463       .  S
N616        N623   1.320   1_655  A
N616        N646   1.324       .  A
N616       Co649   2.088       .  S
N617        N635   1.320       .  A
N618        N628   1.324       .  A
H619        C644   1.081       .  S
N620        N641   1.326       .  A
N621        N639   1.320       .  A
C622        N626   1.350       .  A
C622        C680   1.463       .  S
C624        N652   1.340       .  A
C624        H658   1.082       .  S
C627        N648   1.349   1_455  A
N628        N634   1.321       .  A
N629        N631   1.320       .  A
N630        C644   1.340       .  A
N630       Co713   2.087   1_554  S
N631        N659   1.326       .  A
N631       Co649   2.090       .  S
H632        C655   1.081       .  S
H633        C650   1.082       .  S
N635       Co750   2.085       .  S
N636        N652   1.320       .  A
N636       Co645   2.081       .  S
C637        C651   1.455       .  S
C638        C657   1.455       .  S
C638        H642   1.082       .  S
N639        C650   1.339       .  A
N639       Co750   2.084       .  S
C643        C655   1.456   1_545  S
C643        C674   1.463       .  S
Co649       N736   2.086   1_554  S
Co649       N740   2.084   1_554  S
N652       Co713   2.086   1_554  S
C657        C664   1.460       .  S
C660        N661   1.360       .  A
C660        N665   1.359       .  A
C660        C696   1.483       .  S
N661        C662   1.357       .  A
C662        N663   1.356       .  A
N663        C664   1.356       .  A
C664        N665   1.356       .  A
C666        N667   1.359       .  A
C666        N671   1.359       .  A
C666        C699   1.484       .  S
N667        C668   1.357       .  A
C668        N669   1.357       .  A
N669        C670   1.357       .  A
C670        N671   1.357       .  A
C672        N673   1.358   1_565  A
C672        N677   1.361       .  A
C672        C684   1.488       .  S
N673        C674   1.356       .  A
C674        N675   1.356   1_545  A
N675        C676   1.358       .  A
C676        N677   1.360       .  A
C678        N679   1.361       .  A
C678        N683   1.358       .  A
C678        C687   1.487       .  S
N679        C680   1.358       .  A
C680        N681   1.358       .  A
N681        C682   1.356       .  A
C682        N683   1.357       .  A
C684        C689   1.417       .  A
C685        H690   1.085       .  S
C685        C686   1.402       .  A
C686        C693   1.445       .  S
C687        C688   1.404       .  A
C688        H691   1.085       .  S
C688        C689   1.399       .  A
C689        C692   1.444       .  S
C692        N694   1.157       .  T
C693        N695   1.157       .  T
C696        C701   1.414       .  A
C697        H702   1.085       .  S
C697        C698   1.400       .  A
C698        C705   1.445       .  S
C699        C700   1.405       .  A
C700        H703   1.085       .  S
C700        C701   1.400       .  A
C701        C704   1.444       .  S
C704        N706   1.157       .  T
C705        N707   1.157       .  T
C708        N726   1.349       .  A
N709        N731   1.320       .  A
N709       Co746   2.082       .  S
C710        C748   1.456   1_655  S
C710        H755   1.082       .  S
H711        C752   1.081       .  S
C712        N736   1.340       .  A
C712        H741   1.082       .  S
Co713       N721   2.092       .  S
Co713       N729   2.089       .  S
N714        N721   1.320       .  A
Co715       N718   2.080   1_455  S
Co715       N722   2.083   1_455  S
C716        N754   1.349       .  A
C716        C771   1.463       .  S
N717        N724   1.320   1_655  A
N717        N747   1.324       .  A
N717       Co750   2.088       .  S
N718        N736   1.320       .  A
N719        N729   1.324       .  A
H720        C745   1.081       .  S
N721        N742   1.326       .  A
N722        N740   1.320       .  A
C723        N727   1.350       .  A
C723        C781   1.463       .  S
C725        N753   1.340       .  A
C725        H759   1.082       .  S
C728        N749   1.349   1_455  A
N729        N735   1.320       .  A
N730        N732   1.320       .  A
N731        C745   1.340       .  A
N732        N760   1.326       .  A
N732       Co750   2.090       .  S
H733        C756   1.081       .  S
H734        C751   1.082       .  S
N737        N753   1.320       .  A
N737       Co746   2.081       .  S
C738        C752   1.455       .  S
C739        C758   1.455       .  S
C739        H743   1.082       .  S
N740        C751   1.339       .  A
C744        C756   1.456   1_545  S
C744        C775   1.463       .  S
C758        C765   1.460       .  S
C761        N762   1.360       .  A
C761        N766   1.359       .  A
C761        C797   1.484       .  S
N762        C763   1.357       .  A
C763        N764   1.356       .  A
N764        C765   1.356       .  A
C765        N766   1.356       .  A
C767        N768   1.359       .  A
C767        N772   1.359       .  A
C767        C800   1.484       .  S
N768        C769   1.357       .  A
C769        N770   1.356       .  A
N770        C771   1.357       .  A
C771        N772   1.357       .  A
C773        N774   1.358   1_565  A
C773        N778   1.361       .  A
C773        C785   1.488       .  S
N774        C775   1.356       .  A
C775        N776   1.356   1_545  A
N776        C777   1.358       .  A
C777        N778   1.360       .  A
C779        N780   1.361       .  A
C779        N784   1.358       .  A
C779        C788   1.487       .  S
N780        C781   1.358       .  A
C781        N782   1.358       .  A
N782        C783   1.356       .  A
C783        N784   1.357       .  A
C785        C790   1.417       .  A
C786        H791   1.085       .  S
C786        C787   1.402       .  A
C787        C794   1.445       .  S
C788        C789   1.404       .  A
C789        H792   1.085       .  S
C789        C790   1.399       .  A
C790        C793   1.444       .  S
C793        N795   1.157       .  T
C794        N796   1.157       .  T
C797        C802   1.414       .  A
C798        H803   1.085       .  S
C798        C799   1.400       .  A
C799        C806   1.445       .  S
C800        C801   1.405       .  A
C801        H804   1.085       .  S
C801        C802   1.400       .  A
C802        C805   1.444       .  S
C805        N807   1.157       .  T
C806        N808   1.157       .  T
