geometry optimzed in LAMMPS
_audit_creation_date              2020-12-01 
_audit_creation_method            'lammps2cif' 
_symmetry_space_group_name_H-M    'P1' 
_symmetry_Int_Tables_number       1 
_symmetry_cell_setting            triclinic 
loop_ 
_symmetry_equiv_pos_as_xyz 
  x,y,z 
_cell_length_a                    44.26776793 
_cell_length_b                    49.58600776803098 
_cell_length_c                    30.797725193227873 
_cell_angle_alpha                 89.92191454906015 
_cell_angle_beta                  90.09360999147374 
_cell_angle_gamma                 90.0019265364868 
loop_ 
_atom_site_label 
_atom_site_type_symbol 
_atom_site_fract_x 
_atom_site_fract_y 
_atom_site_fract_z 
_atom_site_charge 
O1          O  0.25334535  0.74614001  0.32670620    -0.73300
O2          O  0.25306653  0.78866266  0.21582131    -0.74300
O3          O  0.20789675  0.76858099  0.27230682    -0.62900
O4          O  0.29843684  0.76659655  0.26955140    -0.71400
O5          O  0.29722672  0.72827541  0.23252638    -0.70900
O6          O  0.20623423  0.73077582  0.23370000    -0.62200
O7          O  0.25206282  0.75048983  0.17817712    -0.74700
O8          O  0.25150607  0.70797003  0.28918225    -0.73500
Cu9        Cu  0.25324289  0.76874713  0.27253846     1.04600
Cu10       Cu  0.25168615  0.72796225  0.23221155     1.04300
C11         C  0.25241891  0.72040121  0.32547659     0.92800
C12         C  0.25266893  0.77622459  0.17955189     0.92000
C13         C  0.19285633  0.75035430  0.25257573     0.84100
C14         C  0.31214710  0.74767041  0.24953426     0.90400
O15         O  0.00370690  0.74919223  0.17123984    -0.73300
O16         O  0.50114631  0.79270515  0.28101655    -0.74300
O17         O  0.04812940  0.77183258  0.22760724    -0.62900
O18         O  0.45687934  0.76944888  0.22478981    -0.71400
O19         O  0.45793259  0.73173867  0.26339304    -0.70900
O20         O  0.04820121  0.73399256  0.26607782    -0.62200
O21         O  0.50181239  0.75474275  0.31931861    -0.74700
O22         O  0.00428336  0.71123455  0.20957165    -0.73500
Cu23       Cu  0.00245236  0.77214709  0.22476306     1.04600
Cu24       Cu  0.50309422  0.73165460  0.26589893     1.04300
C25         C  0.00414364  0.72346208  0.17303915     0.92800
C26         C  0.50117906  0.78048277  0.31754278     0.92000
C27         C  0.06250116  0.75332657  0.24800490     0.84100
C28         C  0.44301700  0.74988913  0.24324032     0.90400
O29         O  0.29498410  0.23051033  0.73565974    -0.73300
O30         O  0.20437680  0.23032692  0.73086747    -0.74300
O31         O  0.25081451  0.25182317  0.67794418    -0.62900
O32         O  0.24836919  0.20875605  0.78843002    -0.71400
O33         O  0.24743678  0.24680275  0.82633522    -0.70900
O34         O  0.24982388  0.28992632  0.71568035    -0.62200
O35         O  0.20357107  0.26835264  0.76868225    -0.73900
O36         O  0.29400037  0.26842494  0.77361097    -0.73500
Cu37       Cu  0.24970762  0.22902258  0.73192133     1.04600
Cu38       Cu  0.24870702  0.26968268  0.77244305     1.04300
C39         C  0.30887761  0.24963126  0.75507119     0.92800
C40         C  0.18966438  0.24954797  0.74861553     0.92000
C41         C  0.25031417  0.27757048  0.67930023     0.84100
C42         C  0.24748465  0.22104659  0.82481037     0.90400
O43         O  0.49961944  0.28916080  0.78834673    -0.73300
O44         O  0.99805543  0.24620707  0.67859184    -0.74300
O45         O  0.45355848  0.26700218  0.73548761    -0.62900
O46         O  0.04423973  0.26760033  0.73179099    -0.71400
O47         O  0.04505380  0.22985586  0.77040546    -0.70900
O48         O  0.45464967  0.22889628  0.77322530    -0.62200
O49         O  0.99946273  0.20799834  0.71621950    -0.74700
O50         O  0.50036439  0.25132237  0.82696753    -0.73500
Cu51       Cu  0.49883220  0.26881001  0.73227923     1.04600
Cu52       Cu  0.99992227  0.22819675  0.77311799     1.04300
C53         C  0.50000823  0.27709185  0.82494616     0.92800
C54         C  0.99873580  0.22049355  0.67988011     0.92000
C55         C  0.43975990  0.24769302  0.75458972     0.84100
C56         C  0.05898837  0.24847363  0.74994699     0.90400
O57         O  0.20346749  0.76636311  0.73580986    -0.73300
O58         O  0.29385784  0.76808618  0.73214697    -0.74300
O59         O  0.24824443  0.74576611  0.67906119    -0.62900
O60         O  0.24922811  0.78865709  0.78922583    -0.71400
O61         O  0.24965695  0.75058284  0.82730118    -0.70900
O62         O  0.25067411  0.70771366  0.71704077    -0.62200
O63         O  0.29565305  0.73075440  0.77204578    -0.74700
O64         O  0.20452579  0.72786372  0.77255365    -0.73500
Cu65       Cu  0.24861165  0.76850697  0.73273415     1.04600
Cu66       Cu  0.25017239  0.72785440  0.77357582     1.04300
C67         C  0.18965005  0.74706651  0.75480768     0.92800
C68         C  0.30899894  0.74989349  0.75186187     0.92000
C69         C  0.24958783  0.72005951  0.68064838     0.84100
C70         C  0.24958123  0.77632140  0.82564438     0.90400
O71         O  0.45407288  0.77015629  0.76437930    -0.73300
O72         O  0.04473180  0.76723288  0.76472430    -0.74300
O73         O  0.00037372  0.79005144  0.70868816    -0.62900
O74         O  0.99839707  0.74773488  0.81968674    -0.71400
O75         O  0.99601926  0.70956902  0.78219975    -0.70900
O76         O  0.49991937  0.75194902  0.67092135    -0.62200
O77         O  0.04345878  0.72883380  0.72831653    -0.74700
O78         O  0.45266599  0.73267369  0.72501834    -0.73500
Cu79       Cu  0.99945908  0.77013862  0.76558449     1.04600
Cu80       Cu  0.49797890  0.72943256  0.72523529     1.04300
C81         C  0.43910501  0.75183097  0.74471099     0.92800
C82         C  0.05855030  0.74734070  0.74734687     0.92000
C83         C  0.50053289  0.77769620  0.67232267     0.84100
C84         C  0.99667126  0.72204451  0.81846153     0.90400
N85         N  0.25154318  0.82511820  0.91376074    -0.27700
N86         N  0.25132068  0.80219759  0.93573845    -0.35600
C87         C  0.25050088  0.78145552  0.90778528     0.00600
C88         C  0.25013492  0.79178393  0.86616393     0.06700
C89         C  0.25083417  0.81951933  0.87101608    -0.06400
H90         H  0.25022809  0.76040576  0.91715238     0.07300
H91         H  0.25089692  0.83450418  0.84544720     0.08500
Cu92       Cu  0.25201484  0.79980208  0.00251919     0.44200
Cu93       Cu  0.25278618  0.86276569  0.94336746     0.42000
Cu94       Cu  0.25294890  0.86261518  0.06157001     0.43900
N95         N  0.25251770  0.80204819  0.06930343    -0.35100
N96         N  0.25290332  0.82495462  0.09120801    -0.29300
C97         C  0.25311078  0.81934321  0.13396344    -0.05400
C98         C  0.25279831  0.79161340  0.13891999     0.06800
C99         C  0.25242676  0.78128573  0.09734079     0.00600
H100        H  0.25338329  0.83432427  0.15947662     0.08200
H101        H  0.25205680  0.76023987  0.08806519     0.07300
N102        N  0.25339375  0.89747019  0.02401592    -0.36500
N103        N  0.25362252  0.89753307  0.98107441    -0.28700
C104        C  0.25407959  0.92322437  0.96693257    -0.04000
C105        C  0.25438565  0.94018635  0.00266855     0.04700
C106        C  0.25358245  0.92311342  0.03827527     0.02800
H107        H  0.25367177  0.92908885  0.93312898     0.07900
H108        H  0.25328638  0.92890979  0.07210818     0.06700
N109        N  0.25093720  0.17228292  0.09092251    -0.27700
N110        N  0.25084857  0.19514030  0.06878170    -0.35600
C111        C  0.25192104  0.21595579  0.09660328     0.00600
C112        C  0.25267573  0.20574440  0.13831537     0.06700
C113        C  0.25202519  0.17798613  0.13362306    -0.06400
H114        H  0.25172924  0.23698303  0.08711254     0.07300
H115        H  0.25196521  0.16306197  0.15928347     0.08500
Cu116      Cu  0.24854141  0.19725154  0.00194460     0.44200
Cu117      Cu  0.24910432  0.13461731  0.06149279     0.42000
Cu118      Cu  0.24745847  0.13433231  0.94300064     0.43900
N119        N  0.24696689  0.19494991  0.93508862    -0.35100
N120        N  0.24679757  0.17204892  0.91314817    -0.29300
C121        C  0.24662297  0.17772336  0.87036722    -0.05400
C122        C  0.24669737  0.20549401  0.86542074     0.06800
C123        C  0.24684883  0.21573952  0.90707634     0.00600
H124        H  0.24676550  0.16276338  0.84482193     0.08200
H125        H  0.24729936  0.23676857  0.91641922     0.07300
N126        N  0.24769512  0.09959972  0.98114699    -0.36500
N127        N  0.24794933  0.09975070  0.02410066    -0.28700
C128        C  0.24787296  0.07413963  0.03863129    -0.04000
C129        C  0.24733319  0.05697891  0.00317497     0.04700
C130        C  0.24758105  0.07385947  0.96729100     0.02800
H131        H  0.24872532  0.06846848  0.07250560     0.07900
H132        H  0.24757110  0.06785730  0.93354929     0.06700
N133        N  0.24673027  0.32630483  0.41218982    -0.27700
N134        N  0.24721922  0.30339074  0.43418787    -0.35600
C135        C  0.24799470  0.28270972  0.40607042     0.00600
C136        C  0.24805047  0.29310600  0.36441894     0.06700
C137        C  0.24725632  0.32080825  0.36941254    -0.06400
H138        H  0.24857969  0.26164899  0.41532463     0.07300
H139        H  0.24702480  0.33584892  0.34393008     0.08500
Cu140      Cu  0.24719350  0.30102789  0.50137476     0.44200
Cu141      Cu  0.24488583  0.36379650  0.44164106     0.42000
Cu142      Cu  0.24144203  0.36337434  0.56022608     0.43900
N143        N  0.24790192  0.30320853  0.56857024    -0.35100
N144        N  0.24576579  0.32605988  0.59041045    -0.29300
C145        C  0.24680728  0.32059786  0.63324350    -0.05400
C146        C  0.24971826  0.29297827  0.63845572     0.06800
C147        C  0.25031489  0.28261565  0.59680647     0.00600
H148        H  0.24518330  0.33557629  0.65865424     0.08200
H149        H  0.25205963  0.26160716  0.58764931     0.07300
N150        N  0.23986299  0.39804270  0.52228992    -0.36500
N151        N  0.24140792  0.39819681  0.47940871    -0.28700
C152        C  0.24128008  0.42387364  0.46529530    -0.04000
C153        C  0.23929514  0.44073685  0.50096646     0.04700
C154        C  0.23870553  0.42363941  0.53653674     0.02800
H155        H  0.24357545  0.42978209  0.43167714     0.07900
H156        H  0.23812474  0.42939834  0.57037983     0.06700
N157        N  0.25135770  0.67146137  0.59234023    -0.27700
N158        N  0.25083898  0.69437528  0.57034391    -0.35600
C159        C  0.25000199  0.71506253  0.59841831     0.00600
C160        C  0.25003623  0.70467587  0.64004505     0.06700
C161        C  0.25093062  0.67697385  0.63510391    -0.06400
H162        H  0.24952270  0.73612303  0.58914611     0.07300
H163        H  0.25124723  0.66194625  0.66060171     0.08500
Cu164      Cu  0.25147627  0.69684680  0.50328696     0.44200
Cu165      Cu  0.25239082  0.63392827  0.56296706     0.42000
Cu166      Cu  0.25293645  0.63432974  0.44447979     0.43900
N167        N  0.25214792  0.69475550  0.43619534    -0.35100
N168        N  0.25253684  0.67182058  0.41438294    -0.29300
C169        C  0.25266038  0.67731852  0.37156050    -0.05400
C170        C  0.25239893  0.70505010  0.36634219     0.06800
C171        C  0.25209686  0.71545116  0.40795969     0.00600
H172        H  0.25296347  0.66225687  0.34617702     0.08200
H173        H  0.25177637  0.73651643  0.41710013     0.07300
N174        N  0.25296764  0.59957438  0.48215819    -0.36500
N175        N  0.25269619  0.59944169  0.52508696    -0.28700
C176        C  0.25202777  0.57377429  0.53917836    -0.04000
C177        C  0.25226388  0.55687094  0.50341525     0.04700
C178        C  0.25254346  0.57397465  0.46784004     0.02800
H179        H  0.25066300  0.56794740  0.57293387     0.07900
H180        H  0.25224783  0.56824200  0.43397658     0.06700
N181        N  0.49982828  0.82906391  0.40630714    -0.27700
N182        N  0.50063229  0.80604184  0.42798712    -0.35600
C183        C  0.50113025  0.78547337  0.39969519     0.00600
C184        C  0.50062132  0.79596362  0.35815996     0.06700
C185        C  0.49981778  0.82369593  0.36342046    -0.06400
H186        H  0.50190748  0.76438750  0.40877394     0.07300
H187        H  0.49931818  0.83881616  0.33807130     0.08500
Cu188      Cu  0.50118914  0.80311895  0.49499528     0.44200
Cu189      Cu  0.49884717  0.86636678  0.43692565     0.42000
Cu190      Cu  0.50138806  0.86487717  0.55582063     0.43900
N191        N  0.50158808  0.80432444  0.56215382    -0.35100
N192        N  0.50180630  0.82701435  0.58462394    -0.29300
C193        C  0.50165445  0.82105225  0.62725602    -0.05400
C194        C  0.50130758  0.79327978  0.63171314     0.06800
C195        C  0.50127731  0.78331114  0.58980980     0.00600
H196        H  0.50153239  0.83584214  0.65305299     0.08200
H197        H  0.50083883  0.76234458  0.58008410     0.07300
N198        N  0.49907189  0.89993177  0.51904804    -0.36500
N199        N  0.49802820  0.90042592  0.47612876    -0.28700
C200        C  0.49693386  0.92621641  0.46271954    -0.04000
C201        C  0.49700555  0.94279790  0.49884382     0.04700
C202        C  0.49867902  0.92541179  0.53401082     0.02800
H203        H  0.49637734  0.93245085  0.42907472     0.07900
H204        H  0.50029329  0.93082080  0.56790006     0.06700
N205        N  0.00166074  0.17287563  0.59005497    -0.27700
N206        N  0.99938659  0.19594640  0.56873652    -0.35600
C207        C  0.99770728  0.21624356  0.59748041     0.00600
C208        C  0.99895814  0.20543488  0.63885629     0.06700
C209        C  0.00146072  0.17787821  0.63301743    -0.06400
H210        H  0.99597918  0.23735603  0.58884577     0.07300
H211        H  0.00327802  0.16262359  0.65804023     0.08500
Cu212      Cu  0.99937508  0.19899714  0.50158281     0.44200
Cu213      Cu  0.00501035  0.13590318  0.55924719     0.42000
Cu214      Cu  0.00403163  0.13700864  0.44074069     0.43900
N215        N  0.00102531  0.19750970  0.43436235    -0.35100
N216        N  0.00270588  0.17482519  0.41198104    -0.29300
C217        C  0.00339474  0.18073921  0.36934038    -0.05400
C218        C  0.00216008  0.20847323  0.36479539     0.06800
C219        C  0.00067139  0.21846673  0.40661324     0.00600
H220        H  0.00468904  0.16594675  0.34361245     0.08200
H221        H  0.99931570  0.23942034  0.41621385     0.07300
N222        N  0.00529320  0.10206437  0.47778835    -0.36500
N223        N  0.00593583  0.10171422  0.52070604    -0.28700
C224        C  0.00622878  0.07597826  0.53444674    -0.04000
C225        C  0.00602819  0.05926781  0.49849876     0.04700
C226        C  0.00508635  0.07653690  0.46311814     0.02800
H227        H  0.00635424  0.06988964  0.56816932     0.07900
H228        H  0.00361683  0.07103809  0.42925413     0.06700
N229        N  0.49800922  0.32722448  0.91130975    -0.27700
N230        N  0.49947896  0.30468997  0.93421948    -0.35600
C231        C  0.50055575  0.28349396  0.90711690     0.00600
C232        C  0.49978831  0.29309409  0.86504953     0.06700
C233        C  0.49817516  0.32090190  0.86880692    -0.06400
H234        H  0.50174054  0.26263425  0.91736776     0.07300
H235        H  0.49709454  0.33544405  0.84262498     0.08500
Cu236      Cu  0.49998136  0.30342207  0.00118417     0.44200
Cu237      Cu  0.49609266  0.36535730  0.93952645     0.42000
Cu238      Cu  0.50101097  0.36625857  0.05851011     0.43900
N239        N  0.50026764  0.30596840  0.06805540    -0.35100
N240        N  0.50071935  0.32899665  0.08959225    -0.29300
C241        C  0.50064551  0.32363001  0.13249179    -0.05400
C242        C  0.50007546  0.29588875  0.13791478     0.06800
C243        C  0.49988929  0.28537654  0.09641907     0.00600
H244        H  0.50094908  0.33876158  0.15776923     0.08200
H245        H  0.49951216  0.26428525  0.08742121     0.07300
N246        N  0.49962191  0.40058983  0.01967812    -0.36500
N247        N  0.49699441  0.40037123  0.97685524    -0.28700
C248        C  0.49584596  0.42600137  0.96239869    -0.04000
C249        C  0.49838753  0.44310637  0.99769481     0.04700
C250        C  0.50053549  0.42630930  0.03345984     0.02800
H251        H  0.49366595  0.43176548  0.92866904     0.07900
H252        H  0.50218120  0.43232369  0.06709855     0.06700
N253        N  0.00297410  0.67446769  0.08512008    -0.27700
N254        N  0.00186523  0.69730146  0.06297910    -0.35600
C255        C  0.00254547  0.71811873  0.09083005     0.00600
C256        C  0.00411695  0.70790900  0.13252887     0.06700
C257        C  0.00433016  0.68016163  0.12780496    -0.06400
H258        H  0.00151783  0.73913499  0.08138975     0.07300
H259        H  0.00497469  0.66522794  0.15343545     0.08500
Cu260      Cu  0.99860536  0.69925881  0.99608565     0.44200
Cu261      Cu  0.00128613  0.63686774  0.05576743     0.42000
Cu262      Cu  0.99083642  0.63650709  0.93799896     0.43900
N263        N  0.99584776  0.69678004  0.92920247    -0.35100
N264        N  0.99309326  0.67387035  0.90764625    -0.29300
C265        C  0.99279541  0.67924201  0.86478273    -0.05400
C266        C  0.99546512  0.70684417  0.85933810     0.06800
C267        C  0.99728983  0.71731646  0.90079343     0.00600
H268        H  0.99102446  0.66417357  0.83953481     0.08200
H269        H  0.99984010  0.73830312  0.90971164     0.07300
N270        N  0.99150142  0.60204877  0.97643002    -0.36500
N271        N  0.99608854  0.60217910  0.01888624    -0.28700
C272        C  0.99652295  0.57659922  0.03344618    -0.04000
C273        C  0.99152504  0.55955319  0.99865218     0.04700
C274        C  0.98865588  0.57637081  0.96296209     0.02800
H275        H  0.00026182  0.57083114  0.06689855     0.07900
H276        H  0.98558577  0.57037907  0.92951908     0.06700
O277        O  0.24927753  0.25201198  0.32532059    -0.73300
O278        O  0.25245699  0.20904575  0.21527575    -0.74300
O279        O  0.29632816  0.23154488  0.27269455    -0.62900
O280        O  0.20551598  0.23003849  0.26799639    -0.71400
O281        O  0.20582937  0.26805716  0.23005258    -0.70900
O282        O  0.29613524  0.26927369  0.23414482    -0.62200
O283        O  0.25235431  0.24705955  0.17708265    -0.74700
O284        O  0.24951645  0.29011493  0.28735556    -0.73500
Cu285      Cu  0.25090696  0.22931172  0.27163075     1.04600
Cu286      Cu  0.25098542  0.26992120  0.23079751     1.04300
C287        C  0.24896490  0.27774166  0.32376036     0.92800
C288        C  0.25262135  0.22131368  0.17880369     0.92000
C289        C  0.31060575  0.25099639  0.25469314     0.84100
C290        C  0.19131927  0.24881996  0.24811499     0.90400
O291        O  0.49942244  0.25474846  0.17738161    -0.73300
O292        O  0.00170010  0.21173543  0.28783654    -0.74300
O293        O  0.45528576  0.23317583  0.23495892    -0.62900
O294        O  0.04571874  0.23308007  0.23049856    -0.71400
O295        O  0.04673218  0.27089667  0.26880988    -0.70900
O296        O  0.45604169  0.27152550  0.27199647    -0.62200
O297        O  0.00203120  0.24980541  0.32572339    -0.74700
O298        O  0.50075934  0.29287221  0.21506595    -0.73500
Cu299      Cu  0.50048252  0.23189333  0.23129807     1.04600
Cu300      Cu  0.00142625  0.27261819  0.27172245     1.04300
C301        C  0.50002354  0.28050236  0.17873250     0.92800
C302        C  0.00201290  0.22405540  0.32422178     0.92000
C303        C  0.44137696  0.25208592  0.25472251     0.84100
C304        C  0.06056335  0.25203882  0.24875382     0.90400
C305        C  0.15786342  0.24891782  0.24660276    -0.06500
C306        C  0.14295326  0.27393242  0.24577337    -0.17700
C307        C  0.11142096  0.27561665  0.24537048     0.10700
C308        C  0.09398035  0.25174455  0.24699256    -0.06500
C309        C  0.10885459  0.22671345  0.24710282    -0.17700
C310        C  0.14040762  0.22501723  0.24633293     0.10700
S311        S  0.09505639  0.30880851  0.24092283    -0.32700
S312        S  0.15674267  0.19177453  0.24319642    -0.32700
H313        H  0.17901120  0.19906756  0.21279219     0.28700
H314        H  0.07243255  0.30104151  0.21130499     0.28700
H315        H  0.15596341  0.29242672  0.24534401     0.19300
H316        H  0.09579734  0.20824572  0.24767827     0.19300
C317        C  0.34409555  0.25209372  0.25725710    -0.06500
C318        C  0.36011330  0.22789947  0.26334905    -0.17700
C319        C  0.39171678  0.22745533  0.26428151     0.10700
C320        C  0.40805698  0.25157819  0.25745120    -0.06500
C321        C  0.39218446  0.27586749  0.25270120    -0.17700
C322        C  0.36058871  0.27649544  0.25329259     0.10700
S323        S  0.40973316  0.19567459  0.27627316    -0.32700
S324        S  0.34304479  0.30926973  0.25067850    -0.32700
H325        H  0.32183419  0.30361341  0.28346558     0.28700
H326        H  0.43283927  0.20690671  0.30196373     0.28700
H327        H  0.34797910  0.20912321  0.26751450     0.19300
H328        H  0.40449522  0.29455969  0.24850750     0.19300
C329        C  0.49748474  0.47292645  0.99746985    -0.06500
C330        C  0.47370091  0.48586516  0.97562629    -0.17700
C331        C  0.47053152  0.51396475  0.97671439     0.10700
C332        C  0.99213291  0.52972749  0.99906638    -0.06500
C333        C  0.01584599  0.51676683  0.02102388    -0.17700
C334        C  0.01896442  0.48868972  0.02004930     0.10700
S335        S  0.43750791  0.52824168  0.95118661    -0.32700
S336        S  0.05177665  0.47443930  0.04616718    -0.32700
H337        H  0.05587480  0.45359399  0.01581298     0.28700
H338        H  0.43372706  0.54911090  0.98159402     0.28700
H339        H  0.45684694  0.47391128  0.95884306     0.19300
H340        H  0.03272947  0.52868181  0.03781737     0.19300
C341        C  0.49826668  0.97264786  0.49903098    -0.06500
C342        C  0.01680066  0.98547729  0.46837124    -0.17700
C343        C  0.02046916  0.01348327  0.46809651     0.10700
C344        C  0.00460781  0.02943025  0.49849547    -0.06500
C345        C  0.48606208  0.01661514  0.52919613    -0.17700
C346        C  0.48241296  0.98857733  0.52948682     0.10700
S347        S  0.04720788  0.02721077  0.42991216    -0.32700
S348        S  0.45578865  0.97476611  0.56776292    -0.32700
H349        H  0.44490054  0.95463527  0.53966595     0.28700
H350        H  0.05843544  0.04701841  0.45833529     0.28700
H351        H  0.02946320  0.97348861  0.44530272     0.19300
H352        H  0.47342909  0.02861916  0.55227532     0.19300
C353        C  0.24143171  0.47052555  0.50160822    -0.06500
C354        C  0.26051300  0.48256621  0.53242873    -0.17700
C355        C  0.26529968  0.51044261  0.53297237     0.10700
C356        C  0.24990843  0.52707251  0.50285534    -0.06500
C357        C  0.23081202  0.51502341  0.47201996    -0.17700
C358        C  0.22616538  0.48711240  0.47131989     0.10700
S359        S  0.29289986  0.52306706  0.57094842    -0.32700
S360        S  0.19919659  0.47429670  0.43257098    -0.32700
H361        H  0.18782876  0.45399651  0.45998493     0.28700
H362        H  0.30453863  0.54280098  0.54269972     0.28700
H363        H  0.27280252  0.47003274  0.55526549     0.19300
H364        H  0.21856849  0.52754068  0.44911479     0.19300
C365        C  0.24831656  0.02706444  0.00324016    -0.06500
C366        C  0.26834721  0.01408577  0.97480872    -0.17700
C367        C  0.27156235  0.98597770  0.97484575     0.10700
C368        C  0.25368293  0.97010553  0.00305578    -0.06500
C369        C  0.23374074  0.98308728  0.03161908    -0.17700
C370        C  0.23058891  0.01120337  0.03167790     0.10700
S371        S  0.30024513  0.97190884  0.94011008    -0.32700
S372        S  0.20220908  0.02529170  0.06690351    -0.32700
H373        H  0.19319583  0.04564147  0.03777170     0.28700
H374        H  0.30894028  0.95149032  0.96932342     0.28700
H375        H  0.28242603  0.02601584  0.95337822     0.19300
H376        H  0.21966164  0.97116238  0.05305492     0.19300
C377        C  0.15619578  0.74701034  0.75574418    -0.06500
C378        C  0.14066653  0.72268243  0.74917089    -0.17700
C379        C  0.10906237  0.72201964  0.74578200     0.10700
C380        C  0.09219438  0.74625181  0.74943605    -0.06500
C381        C  0.10791830  0.77041626  0.75727793    -0.17700
C382        C  0.13939574  0.77100406  0.76103583     0.10700
S383        S  0.09180636  0.68948384  0.73842253    -0.32700
S384        S  0.15657548  0.80286424  0.77480182    -0.32700
H385        H  0.17881801  0.79167793  0.80212323     0.28700
H386        H  0.08157287  0.69583485  0.69634036     0.28700
H387        H  0.15328407  0.70409816  0.74557847     0.19300
H388        H  0.09559524  0.78913953  0.76103051     0.19300
C389        C  0.34222685  0.75108053  0.75085929    -0.06500
C390        C  0.35671778  0.75052358  0.71039938    -0.17700
C391        C  0.38826002  0.75124736  0.70734944     0.10700
C392        C  0.40582596  0.75251489  0.74560780    -0.06500
C393        C  0.39130209  0.75361189  0.78604991    -0.17700
C394        C  0.35974643  0.75296391  0.78908616     0.10700
S395        S  0.40467241  0.75112849  0.65378507    -0.32700
S396        S  0.34321749  0.75513771  0.84246437    -0.32700
H397        H  0.31760563  0.76990002  0.82959395     0.28700
H398        H  0.42950479  0.76758028  0.66429588     0.28700
H399        H  0.34333757  0.74940537  0.68094204     0.19300
H400        H  0.40466326  0.75472084  0.81552429     0.19300
C401        C  0.15629387  0.24973164  0.74645420    -0.06500
C402        C  0.14092826  0.22499580  0.74788074    -0.17700
C403        C  0.10935687  0.22387481  0.74774837     0.10700
C404        C  0.09240688  0.24810776  0.74749448    -0.06500
C405        C  0.10781890  0.27281460  0.74502080    -0.17700
C406        C  0.13937830  0.27387864  0.74378579     0.10700
S407        S  0.09235718  0.19084303  0.74608462    -0.32700
S408        S  0.15648403  0.30660779  0.73687937    -0.32700
H409        H  0.17901899  0.29759040  0.70815713     0.28700
H410        H  0.07011874  0.19803052  0.71546359     0.28700
H411        H  0.15359819  0.20633677  0.74912149     0.19300
H412        H  0.09520867  0.29150624  0.74392511     0.19300
C413        C  0.34238290  0.24971114  0.75597868    -0.06500
C414        C  0.35758061  0.22484302  0.75439906    -0.17700
C415        C  0.38915112  0.22346136  0.75360030     0.10700
C416        C  0.40633089  0.24749671  0.75539335    -0.06500
C417        C  0.39118590  0.27231494  0.75771393    -0.17700
C418        C  0.35963490  0.27374291  0.75758804     0.10700
S419        S  0.40584148  0.19048270  0.74798394    -0.32700
S420        S  0.34313275  0.30696881  0.75732158    -0.32700
H421        H  0.32232677  0.30106417  0.72405996     0.28700
H422        H  0.42755166  0.19868212  0.71735357     0.28700
H423        H  0.34477077  0.20626596  0.75309524     0.19300
H424        H  0.40405039  0.29086526  0.75908762     0.19300
C425        C  0.15970824  0.75220184  0.25125072    -0.06500
C426        C  0.14331023  0.74444199  0.28798885    -0.17700
C427        C  0.11172183  0.74558677  0.28835198     0.10700
C428        C  0.09592005  0.75403725  0.25065413    -0.06500
C429        C  0.11251074  0.76238062  0.21417880    -0.17700
C430        C  0.14416792  0.76177445  0.21425439     0.10700
S431        S  0.09309488  0.73706578  0.33856050    -0.32700
S432        S  0.16352414  0.77338290  0.16627247    -0.32700
H433        H  0.18780518  0.78525967  0.18861707     0.28700
H434        H  0.07086242  0.75724012  0.33496978     0.28700
H435        H  0.15524242  0.73764877  0.31677655     0.19300
H436        H  0.10075346  0.76912209  0.18522764     0.19300
C437        C  0.34548850  0.74843107  0.24555175    -0.06500
C438        C  0.36174355  0.72417931  0.24761213    -0.17700
C439        C  0.39334176  0.72388560  0.24512608     0.10700
C440        C  0.40948425  0.74852322  0.24196430    -0.06500
C441        C  0.39308972  0.77267912  0.23848979    -0.17700
C442        C  0.36147837  0.77285138  0.23938997     0.10700
S443        S  0.41136788  0.69128340  0.24425473    -0.32700
S444        S  0.34297371  0.80477470  0.23034631    -0.32700
H445        H  0.32000786  0.79405279  0.20384152     0.28700
H446        H  0.43228578  0.69833437  0.21177788     0.28700
H447        H  0.34975194  0.70527260  0.25106421     0.19300
H448        H  0.40494508  0.79164715  0.23498815     0.19300
O449        O  0.75334538  0.74614000  0.32670607    -0.73300
O450        O  0.75306647  0.78866264  0.21582117    -0.74300
O451        O  0.70789674  0.76858093  0.27230670    -0.62900
O452        O  0.79843683  0.76659662  0.26955126    -0.71400
O453        O  0.79722675  0.72827551  0.23252615    -0.70900
O454        O  0.70623425  0.73077576  0.23369986    -0.62200
O455        O  0.75206276  0.75048982  0.17817695    -0.74700
O456        O  0.75150615  0.70797004  0.28918209    -0.73500
Cu457      Cu  0.75324288  0.76874712  0.27253833     1.04600
Cu458      Cu  0.75168618  0.72796226  0.23221139     1.04300
C459        C  0.75241898  0.72040120  0.32547643     0.92800
C460        C  0.75266886  0.77622458  0.17955175     0.92000
C461        C  0.69285634  0.75035423  0.25257559     0.84100
C462        C  0.81214710  0.74767051  0.24953404     0.90400
O463        O  0.50370678  0.74919211  0.17123992    -0.73300
O464        O  0.00114622  0.79270528  0.28101648    -0.74300
O465        O  0.54812939  0.77183242  0.22760718    -0.62900
O466        O  0.95687936  0.76944900  0.22478955    -0.71400
O467        O  0.95793257  0.73173886  0.26339294    -0.70900
O468        O  0.54820124  0.73399242  0.26607784    -0.62200
O469        O  0.00181236  0.75474288  0.31931856    -0.74700
O470        O  0.50428335  0.71123442  0.20957169    -0.73500
Cu471      Cu  0.50245235  0.77214696  0.22476315     1.04600
Cu472      Cu  0.00309420  0.73165475  0.26589888     1.04300
C473        C  0.50414355  0.72346196  0.17303920     0.92800
C474        C  0.00117900  0.78048290  0.31754273     0.92000
C475        C  0.56250116  0.75332642  0.24800484     0.84100
C476        C  0.94301700  0.74988930  0.24324012     0.90400
O477        O  0.79498413  0.23051032  0.73565953    -0.73300
O478        O  0.70437679  0.23032667  0.73086748    -0.74300
O479        O  0.75081438  0.25182305  0.67794407    -0.62900
O480        O  0.74836934  0.20875591  0.78842994    -0.71400
O481        O  0.74743676  0.24680261  0.82633514    -0.70900
O482        O  0.74982374  0.28992619  0.71568028    -0.62200
O483        O  0.70357099  0.26835242  0.76868217    -0.73900
O484        O  0.79400034  0.26842489  0.77361086    -0.73500
Cu485      Cu  0.74970764  0.22902246  0.73192123     1.04600
Cu486      Cu  0.74870695  0.26968254  0.77244296     1.04300
C487        C  0.80887762  0.24963126  0.75507100     0.92800
C488        C  0.68966434  0.24954771  0.74861549     0.92000
C489        C  0.75031399  0.27757037  0.67930016     0.84100
C490        C  0.74748475  0.22104646  0.82481031     0.90400
O491        O  0.99961935  0.28916105  0.78834653    -0.73300
O492        O  0.49805530  0.24620683  0.67859206    -0.74300
O493        O  0.95355852  0.26700238  0.73548728    -0.62900
O494        O  0.54423969  0.26759999  0.73179112    -0.71400
O495        O  0.54505377  0.22985554  0.77040565    -0.70900
O496        O  0.95464971  0.22889654  0.77322511    -0.62200
O497        O  0.49946268  0.20799808  0.71621966    -0.74700
O498        O  0.00036439  0.25132261  0.82696731    -0.73500
Cu499      Cu  0.99883223  0.26881027  0.73227901     1.04600
Cu500      Cu  0.49992224  0.22819648  0.77311818     1.04300
C501        C  0.00000815  0.27709209  0.82494595     0.92800
C502        C  0.49873570  0.22049332  0.67988028     0.92000
C503        C  0.93975994  0.24769324  0.75458943     0.84100
C504        C  0.55898833  0.24847330  0.74994711     0.90400
O505        O  0.70346758  0.76636312  0.73580955    -0.73300
O506        O  0.79385789  0.76808617  0.73214706    -0.74300
O507        O  0.74824458  0.74576609  0.67906112    -0.62900
O508        O  0.74922806  0.78865711  0.78922572    -0.71400
O509        O  0.74965706  0.75058289  0.82730111    -0.70900
O510        O  0.75067409  0.70771364  0.71704071    -0.62200
O511        O  0.79565308  0.73075433  0.77204572    -0.74700
O512        O  0.70452577  0.72786387  0.77255365    -0.73500
Cu513      Cu  0.74861172  0.76850697  0.73273406     1.04600
Cu514      Cu  0.75017241  0.72785442  0.77357578     1.04300
C515        C  0.68965006  0.74706664  0.75480754     0.92800
C516        C  0.80899898  0.74989346  0.75186190     0.92000
C517        C  0.74958790  0.72005948  0.68064832     0.84100
C518        C  0.74958125  0.77632146  0.82564427     0.90400
O519        O  0.95407294  0.77015629  0.76437941    -0.73300
O520        O  0.54473174  0.76723283  0.76472457    -0.74300
O521        O  0.50037381  0.79005141  0.70868820    -0.62900
O522        O  0.49839685  0.74773485  0.81968680    -0.71400
O523        O  0.49601917  0.70956900  0.78219978    -0.70900
O524        O  0.99991924  0.75194904  0.67092132    -0.62200
O525        O  0.54345881  0.72883376  0.72831670    -0.74700
O526        O  0.95266599  0.73267370  0.72501845    -0.73500
Cu527      Cu  0.49945902  0.77013860  0.76558456     1.04600
Cu528      Cu  0.99797888  0.72943259  0.72523527     1.04300
C529        C  0.93910504  0.75183099  0.74471111     0.92800
C530        C  0.55855027  0.74734067  0.74734713     0.92000
C531        C  0.00053273  0.77769622  0.67232264     0.84100
C532        C  0.49667106  0.72204449  0.81846158     0.90400
N533        N  0.75154314  0.82511827  0.91376059    -0.27700
N534        N  0.75132076  0.80219769  0.93573830    -0.35600
C535        C  0.75050099  0.78145561  0.90778515     0.00600
C536        C  0.75013492  0.79178399  0.86616381     0.06700
C537        C  0.75083408  0.81951946  0.87101584    -0.06400
H538        H  0.75022830  0.76040584  0.91715229     0.07300
H539        H  0.75089673  0.83450399  0.84544748     0.08500
Cu540      Cu  0.75201500  0.79980212  0.00251905     0.44200
Cu541      Cu  0.75278608  0.86276580  0.94336719     0.42000
Cu542      Cu  0.75294864  0.86261516  0.06156980     0.43900
N543        N  0.75251776  0.80204819  0.06930329    -0.35100
N544        N  0.75290320  0.82495463  0.09120787    -0.29300
C545        C  0.75311056  0.81934322  0.13396331    -0.05400
C546        C  0.75279823  0.79161340  0.13891985     0.06800
C547        C  0.75242687  0.78128572  0.09734064     0.00600
H548        H  0.75338290  0.83432425  0.15947646     0.08200
H549        H  0.75205705  0.76023990  0.08806505     0.07300
N550        N  0.75339360  0.89747019  0.02401575    -0.36500
N551        N  0.75362240  0.89753312  0.98107425    -0.28700
C552        C  0.75407947  0.92322444  0.96693242    -0.04000
C553        C  0.75438555  0.94018636  0.00266851     0.04700
C554        C  0.75358233  0.92311340  0.03827515     0.02800
H555        H  0.75367167  0.92908890  0.93312918     0.07900
H556        H  0.75328624  0.92890976  0.07210824     0.06700
N557        N  0.75093669  0.17228304  0.09092259    -0.27700
N558        N  0.75084810  0.19514041  0.06878171    -0.35600
C559        C  0.75192056  0.21595588  0.09660325     0.00600
C560        C  0.75267522  0.20574459  0.13831534     0.06700
C561        C  0.75202465  0.17798628  0.13362316    -0.06400
H562        H  0.75172886  0.23698340  0.08711232     0.07300
H563        H  0.75196473  0.16306230  0.15928336     0.08500
Cu564      Cu  0.74854127  0.19725156  0.00194457     0.44200
Cu565      Cu  0.74910399  0.13461736  0.06149304     0.42000
Cu566      Cu  0.74745860  0.13433227  0.94300083     0.43900
N567        N  0.74696700  0.19494983  0.93508859    -0.35100
N568        N  0.74679779  0.17204884  0.91314822    -0.29300
C569        C  0.74662325  0.17772323  0.87036723    -0.05400
C570        C  0.74669756  0.20549387  0.86542069     0.06800
C571        C  0.74684892  0.21573949  0.90707628     0.00600
H572        H  0.74676582  0.16276326  0.84482201     0.08200
H573        H  0.74729933  0.23676820  0.91641896     0.07300
N574        N  0.74769513  0.09959972  0.98114725    -0.36500
N575        N  0.74794919  0.09975070  0.02410097    -0.28700
C576        C  0.74787282  0.07413963  0.03863155    -0.04000
C577        C  0.74733323  0.05697891  0.00317522     0.04700
C578        C  0.74758117  0.07385950  0.96729138     0.02800
H579        H  0.74872508  0.06846846  0.07250592     0.07900
H580        H  0.74757134  0.06785722  0.93354907     0.06700
N581        N  0.74673063  0.32630506  0.41218981    -0.27700
N582        N  0.74721957  0.30339094  0.43418787    -0.35600
C583        C  0.74799510  0.28270993  0.40607041     0.00600
C584        C  0.74805092  0.29310625  0.36441891     0.06700
C585        C  0.74725675  0.32080842  0.36941265    -0.06400
H586        H  0.74858003  0.26164925  0.41532456     0.07300
H587        H  0.74702520  0.33584947  0.34392957     0.08500
Cu588      Cu  0.74719361  0.30102806  0.50137473     0.44200
Cu589      Cu  0.74488598  0.36379669  0.44164108     0.42000
Cu590      Cu  0.74144170  0.36337437  0.56022622     0.43900
N591        N  0.74790173  0.30320857  0.56857023    -0.35100
N592        N  0.74576546  0.32605986  0.59041050    -0.29300
C593        C  0.74680691  0.32059782  0.63324361    -0.05400
C594        C  0.74971800  0.29297820  0.63845566     0.06800
C595        C  0.75031473  0.28261563  0.59680638     0.00600
H596        H  0.74518290  0.33557602  0.65865405     0.08200
H597        H  0.75205961  0.26160725  0.58764917     0.07300
N598        N  0.73986266  0.39804274  0.52229005    -0.36500
N599        N  0.74140780  0.39819691  0.47940889    -0.28700
C600        C  0.74127998  0.42387375  0.46529553    -0.04000
C601        C  0.73929482  0.44073691  0.50096671     0.04700
C602        C  0.73870505  0.42363945  0.53653702     0.02800
H603        H  0.74357554  0.42978224  0.43167744     0.07900
H604        H  0.73812413  0.42939825  0.57037963     0.06700
N605        N  0.75135783  0.67146139  0.59234010    -0.27700
N606        N  0.75083899  0.69437529  0.57034380    -0.35600
C607        C  0.75000194  0.71506253  0.59841822     0.00600
C608        C  0.75003628  0.70467586  0.64004496     0.06700
C609        C  0.75093079  0.67697383  0.63510384    -0.06400
H610        H  0.74952257  0.73612306  0.58914603     0.07300
H611        H  0.75124753  0.66194636  0.66060136     0.08500
Cu612      Cu  0.75147634  0.69684682  0.50328681     0.44200
Cu613      Cu  0.75239112  0.63392828  0.56296699     0.42000
Cu614      Cu  0.75293677  0.63432972  0.44447967     0.43900
N615        N  0.75214798  0.69475547  0.43619517    -0.35100
N616        N  0.75253699  0.67182056  0.41438278    -0.29300
C617        C  0.75266054  0.67731849  0.37156031    -0.05400
C618        C  0.75239901  0.70505008  0.36634203     0.06800
C619        C  0.75209688  0.71545115  0.40795952     0.00600
H620        H  0.75296369  0.66225692  0.34617695     0.08200
H621        H  0.75177635  0.73651636  0.41709994     0.07300
N622        N  0.75296791  0.59957437  0.48215815    -0.36500
N623        N  0.75269639  0.59944169  0.52508693    -0.28700
C624        C  0.75202794  0.57377431  0.53917834    -0.04000
C625        C  0.75226412  0.55687093  0.50341527     0.04700
C626        C  0.75254377  0.57397463  0.46784004     0.02800
H627        H  0.75066310  0.56794741  0.57293396     0.07900
H628        H  0.75224819  0.56824196  0.43397658     0.06700
N629        N  0.99982814  0.82906403  0.40630714    -0.27700
N630        N  0.00063217  0.80604193  0.42798710    -0.35600
C631        C  0.00113020  0.78547351  0.39969514     0.00600
C632        C  0.00062126  0.79596376  0.35815992     0.06700
C633        C  0.99981767  0.82369603  0.36342052    -0.06400
H634        H  0.00190744  0.76438753  0.40877391     0.07300
H635        H  0.99931802  0.83881644  0.33807106     0.08500
Cu636      Cu  0.00118881  0.80311898  0.49499526     0.44200
Cu637      Cu  0.99884689  0.86636688  0.43692570     0.42000
Cu638      Cu  0.00138774  0.86487718  0.55582064     0.43900
N639        N  0.00158770  0.80432445  0.56215379    -0.35100
N640        N  0.00180596  0.82701435  0.58462392    -0.29300
C641        C  0.00165419  0.82105226  0.62725600    -0.05400
C642        C  0.00130732  0.79327979  0.63171311     0.06800
C643        C  0.00127697  0.78331113  0.58980977     0.00600
H644        H  0.00153220  0.83584214  0.65305297     0.08200
H645        H  0.00083850  0.76234465  0.58008411     0.07300
N646        N  0.99907175  0.89993182  0.51904812    -0.36500
N647        N  0.99802806  0.90042600  0.47612888    -0.28700
C648        C  0.99693380  0.92621651  0.46271974    -0.04000
C649        C  0.99700554  0.94279796  0.49884401     0.04700
C650        C  0.99867897  0.92541184  0.53401111     0.02800
H651        H  0.99637728  0.93245102  0.42907474     0.07900
H652        H  0.00029321  0.93082069  0.56789957     0.06700
N653        N  0.50166055  0.17287547  0.59005500    -0.27700
N654        N  0.49938649  0.19594627  0.56873662    -0.35600
C655        C  0.49770724  0.21624342  0.59748056     0.00600
C656        C  0.49895804  0.20543467  0.63885643     0.06700
C657        C  0.50146052  0.17787802  0.63301745    -0.06400
H658        H  0.49597923  0.23735580  0.58884602     0.07300
H659        H  0.50327774  0.16262324  0.65804041     0.08500
Cu660      Cu  0.49937499  0.19899704  0.50158292     0.44200
Cu661      Cu  0.50501004  0.13590310  0.55924695     0.42000
Cu662      Cu  0.50403170  0.13700873  0.44074045     0.43900
N663        N  0.50102541  0.19750983  0.43436248    -0.35100
N664        N  0.50270602  0.17482538  0.41198103    -0.29300
C665        C  0.50339490  0.18073952  0.36934043    -0.05400
C666        C  0.50216023  0.20847354  0.36479559     0.06800
C667        C  0.50067151  0.21846696  0.40661353     0.00600
H668        H  0.50468920  0.16594708  0.34361231     0.08200
H669        H  0.49931578  0.23942038  0.41621420     0.07300
N670        N  0.50529294  0.10206438  0.47778800    -0.36500
N671        N  0.50593546  0.10171420  0.52070571    -0.28700
C672        C  0.50622836  0.07597824  0.53444633    -0.04000
C673        C  0.50602786  0.05926780  0.49849836     0.04700
C674        C  0.50508610  0.07653691  0.46311776     0.02800
H675        H  0.50635378  0.06988956  0.56816911     0.07900
H676        H  0.50361670  0.07103810  0.42925370     0.06700
N677        N  0.99800895  0.32722461  0.91130969    -0.27700
N678        N  0.99947881  0.30469007  0.93421933    -0.35600
C679        C  0.00055566  0.28349410  0.90711668     0.00600
C680        C  0.99978815  0.29309429  0.86504935     0.06700
C681        C  0.99817487  0.32090209  0.86880682    -0.06400
H682        H  0.00174057  0.26263442  0.91736746     0.07300
H683        H  0.99709419  0.33544425  0.84262498     0.08500
Cu684      Cu  0.99998129  0.30342206  0.00118400     0.44200
Cu685      Cu  0.99609233  0.36535739  0.93952657     0.42000
Cu686      Cu  0.00101086  0.36625845  0.05851017     0.43900
N687        N  0.00026773  0.30596823  0.06805521    -0.35100
N688        N  0.00071941  0.32899646  0.08959218    -0.29300
C689        C  0.00064562  0.32362970  0.13249164    -0.05400
C690        C  0.00007565  0.29588846  0.13791456     0.06800
C691        C  0.99988946  0.28537632  0.09641879     0.00600
H692        H  0.00094915  0.33876138  0.15776943     0.08200
H693        H  0.99951234  0.26428505  0.08742082     0.07300
N694        N  0.99962174  0.40058982  0.01967835    -0.36500
N695        N  0.99699412  0.40037127  0.97685549    -0.28700
C696        C  0.99584563  0.42600144  0.96239901    -0.04000
C697        C  0.99838731  0.44310640  0.99769517     0.04700
C698        C  0.00053539  0.42630929  0.03346015     0.02800
H699        H  0.99366554  0.43176557  0.92866948     0.07900
H700        H  0.00218123  0.43232365  0.06709881     0.06700
N701        N  0.50297384  0.67446762  0.08512009    -0.27700
N702        N  0.50186491  0.69730137  0.06297915    -0.35600
C703        C  0.50254519  0.71811869  0.09083008     0.00600
C704        C  0.50411680  0.70790891  0.13252890     0.06700
C705        C  0.50433002  0.68016152  0.12780504    -0.06400
H706        H  0.50151753  0.73913473  0.08138989     0.07300
H707        H  0.50497462  0.66522802  0.15343515     0.08500
Cu708      Cu  0.49860495  0.69925870  0.99608568     0.44200
Cu709      Cu  0.50128581  0.63686766  0.05576743     0.42000
Cu710      Cu  0.49083606  0.63650706  0.93799900     0.43900
N711        N  0.49584732  0.69677999  0.92920250    -0.35100
N712        N  0.49309287  0.67387030  0.90764624    -0.29300
C713        C  0.49279510  0.67924201  0.86478280    -0.05400
C714        C  0.49546480  0.70684414  0.85933812     0.06800
C715        C  0.49728944  0.71731643  0.90079349     0.00600
H716        H  0.49102422  0.66417336  0.83953448     0.08200
H717        H  0.49983970  0.73830299  0.90971167     0.07300
N718        N  0.49150111  0.60204873  0.97642997    -0.36500
N719        N  0.49608822  0.60217903  0.01888622    -0.28700
C720        C  0.49652266  0.57659914  0.03344601    -0.04000
C721        C  0.49152481  0.55955313  0.99865202     0.04700
C722        C  0.48865564  0.57637078  0.96296196     0.02800
H723        H  0.50026159  0.57083097  0.06689872     0.07900
H724        H  0.48558560  0.57037908  0.92951899     0.06700
O725        O  0.74927774  0.25201223  0.32532055    -0.73300
O726        O  0.75245667  0.20904599  0.21527572    -0.74300
O727        O  0.79632812  0.23154496  0.27269424    -0.62900
O728        O  0.70551593  0.23003889  0.26799664    -0.71400
O729        O  0.70582939  0.26805754  0.23005279    -0.70900
O730        O  0.79613527  0.26927376  0.23414448    -0.62200
O731        O  0.75235409  0.24705977  0.17708258    -0.74700
O732        O  0.74951676  0.29011518  0.28735552    -0.73500
Cu733      Cu  0.75090691  0.22931196  0.27163072     1.04600
Cu734      Cu  0.75098545  0.26992143  0.23079745     1.04300
C735        C  0.74896524  0.27774190  0.32376035     0.92800
C736        C  0.75262100  0.22131388  0.17880365     0.92000
C737        C  0.81060575  0.25099643  0.25469275     0.84100
C738        C  0.69131925  0.24882038  0.24811526     0.90400
O739        O  0.99942258  0.25474810  0.17738129    -0.73300
O740        O  0.50170020  0.21173583  0.28783680    -0.74300
O741        O  0.95528575  0.23317550  0.23495852    -0.62900
O742        O  0.54571873  0.23308056  0.23049876    -0.71400
O743        O  0.54673215  0.27089714  0.26881013    -0.70900
O744        O  0.95604173  0.27152515  0.27199612    -0.62200
O745        O  0.50203124  0.24980579  0.32572370    -0.74700
O746        O  0.00075944  0.29287182  0.21506569    -0.73500
Cu747      Cu  0.00048253  0.23189293  0.23129776     1.04600
Cu748      Cu  0.50142621  0.27261859  0.27172275     1.04300
C749        C  0.00002369  0.28050200  0.17873221     0.92800
C750        C  0.50201300  0.22405579  0.32422205     0.92000
C751        C  0.94137697  0.25208561  0.25472209     0.84100
C752        C  0.56056333  0.25203931  0.24875403     0.90400
C753        C  0.65786340  0.24891827  0.24660305    -0.06500
C754        C  0.64295328  0.27393290  0.24577371    -0.17700
C755        C  0.61142097  0.27561714  0.24537079     0.10700
C756        C  0.59398034  0.25174505  0.24699277    -0.06500
C757        C  0.60885456  0.22671395  0.24710294    -0.17700
C758        C  0.64040759  0.22501770  0.24633310     0.10700
S759        S  0.59505644  0.30880903  0.24092320    -0.32700
S760        S  0.65674260  0.19177499  0.24319645    -0.32700
H761        H  0.67901114  0.19906806  0.21279225     0.28700
H762        H  0.57243247  0.30104207  0.21130555     0.28700
H763        H  0.65596337  0.29242709  0.24534441     0.19300
H764        H  0.59579725  0.20824615  0.24767830     0.19300
C765        C  0.84409555  0.25209366  0.25725660    -0.06500
C766        C  0.86011324  0.22789940  0.26334863    -0.17700
C767        C  0.89171670  0.22745515  0.26428109     0.10700
C768        C  0.90805699  0.25157796  0.25745070    -0.06500
C769        C  0.89218454  0.27586729  0.25270057    -0.17700
C770        C  0.86058880  0.27649534  0.25329197     0.10700
S771        S  0.90973295  0.19567437  0.27627286    -0.32700
S772        S  0.84304499  0.30926966  0.25067783    -0.32700
H773        H  0.82183442  0.30361345  0.28346500     0.28700
H774        H  0.93283908  0.20690645  0.30196344     0.28700
H775        H  0.84797887  0.20912301  0.26751420     0.19300
H776        H  0.90449539  0.29455946  0.24850680     0.19300
C777        C  0.99748461  0.47292648  0.99747022    -0.06500
C778        C  0.97370071  0.48586528  0.97562701    -0.17700
C779        C  0.97053142  0.51396486  0.97671501     0.10700
C780        C  0.49213279  0.52972742  0.99906611    -0.06500
C781        C  0.51584580  0.51676683  0.02102395    -0.17700
C782        C  0.51896430  0.48868971  0.02004932     0.10700
S783        S  0.93750776  0.52824190  0.95118755    -0.32700
S784        S  0.55177634  0.47443936  0.04616779    -0.32700
H785        H  0.55587489  0.45359415  0.01581353     0.28700
H786        H  0.93372719  0.54911120  0.98159488     0.28700
H787        H  0.95684639  0.47391132  0.95884386     0.19300
H788        H  0.53272894  0.52868172  0.03781757     0.19300
C789        C  0.99826675  0.97264791  0.49903125    -0.06500
C790        C  0.51680055  0.98547728  0.46837101    -0.17700
C791        C  0.52046901  0.01348325  0.46809620     0.10700
C792        C  0.50460756  0.02943023  0.49849509    -0.06500
C793        C  0.98606233  0.01661519  0.52919653    -0.17700
C794        C  0.98241311  0.98857738  0.52948715     0.10700
S795        S  0.54720774  0.02721077  0.42991190    -0.32700
S796        S  0.95578879  0.97476618  0.56776326    -0.32700
H797        H  0.94490057  0.95463542  0.53966621     0.28700
H798        H  0.55843519  0.04701849  0.45833499     0.28700
H799        H  0.52946326  0.97348850  0.44530232     0.19300
H800        H  0.97342936  0.02861926  0.55227585     0.19300
C801        C  0.74143146  0.47052560  0.50160853    -0.06500
C802        C  0.76051275  0.48256622  0.53242908    -0.17700
C803        C  0.76529964  0.51044259  0.53297260     0.10700
C804        C  0.74990857  0.52707251  0.50285541    -0.06500
C805        C  0.73081214  0.51502346  0.47202002    -0.17700
C806        C  0.72616530  0.48711248  0.47132006     0.10700
S807        S  0.79289979  0.52306699  0.57094874    -0.32700
S808        S  0.69919653  0.47429687  0.43257104    -0.32700
H809        H  0.68782867  0.45399660  0.45998483     0.28700
H810        H  0.80453871  0.54280085  0.54270005     0.28700
H811        H  0.77280215  0.47003272  0.55526597     0.19300
H812        H  0.71856874  0.52754077  0.44911472     0.19300
C813        C  0.74831661  0.02706444  0.00324037    -0.06500
C814        C  0.76834729  0.01408576  0.97480899    -0.17700
C815        C  0.77156240  0.98597771  0.97484591     0.10700
C816        C  0.75368289  0.97010553  0.00305581    -0.06500
C817        C  0.73374066  0.98308727  0.03161906    -0.17700
C818        C  0.73058887  0.01120335  0.03167798     0.10700
S819        S  0.80024517  0.97190884  0.94011023    -0.32700
S820        S  0.70220899  0.02529168  0.06690348    -0.32700
H821        H  0.69319573  0.04564140  0.03777158     0.28700
H822        H  0.80894016  0.95149017  0.96932337     0.28700
H823        H  0.78242627  0.02601594  0.95337841     0.19300
H824        H  0.71966147  0.97116234  0.05305483     0.19300
C825        C  0.65619574  0.74701057  0.75574401    -0.06500
C826        C  0.64066645  0.72268239  0.74917320    -0.17700
C827        C  0.60906225  0.72201954  0.74578459     0.10700
C828        C  0.59219433  0.74625186  0.74943621    -0.06500
C829        C  0.60791823  0.77041664  0.75727553    -0.17700
C830        C  0.63939570  0.77100451  0.76103331     0.10700
S831        S  0.59180603  0.68948349  0.73842900    -0.32700
S832        S  0.65657538  0.80286523  0.77479629    -0.32700
H833        H  0.67881752  0.79167992  0.80211942     0.28700
H834        H  0.58157279  0.69583255  0.69634595     0.28700
H835        H  0.65328380  0.70409812  0.74558268     0.19300
H836        H  0.59559530  0.78913983  0.76102617     0.19300
C837        C  0.84222688  0.75108051  0.75085935    -0.06500
C838        C  0.85671783  0.75052333  0.71039946    -0.17700
C839        C  0.88826006  0.75124713  0.70734954     0.10700
C840        C  0.90582599  0.75251494  0.74560790    -0.06500
C841        C  0.89130212  0.75361222  0.78605003    -0.17700
C842        C  0.85974644  0.75296419  0.78908620     0.10700
S843        S  0.90467248  0.75112790  0.65378519    -0.32700
S844        S  0.84321743  0.75513832  0.84246433    -0.32700
H845        H  0.81760559  0.76990055  0.82959362     0.28700
H846        H  0.92950475  0.76757990  0.66429571     0.28700
H847        H  0.84333763  0.74940491  0.68094213     0.19300
H848        H  0.90466312  0.75472138  0.81552408     0.19300
C849        C  0.65629382  0.24973135  0.74645418    -0.06500
C850        C  0.64092829  0.22499541  0.74788074    -0.17700
C851        C  0.60935685  0.22387448  0.74774840     0.10700
C852        C  0.59240685  0.24810740  0.74749455    -0.06500
C853        C  0.60781879  0.27281432  0.74502082    -0.17700
C854        C  0.63937823  0.27387832  0.74378578     0.10700
S855        S  0.59235720  0.19084267  0.74608465    -0.32700
S856        S  0.65648390  0.30660750  0.73687937    -0.32700
H857        H  0.67901887  0.29759013  0.70815713     0.28700
H858        H  0.57011862  0.19803017  0.71546385     0.28700
H859        H  0.65359795  0.20633681  0.74912145     0.19300
H860        H  0.59520876  0.29150563  0.74392517     0.19300
C861        C  0.84238293  0.24971120  0.75597839    -0.06500
C862        C  0.85758072  0.22484313  0.75439876    -0.17700
C863        C  0.88915123  0.22346152  0.75359997     0.10700
C864        C  0.90633093  0.24749690  0.75539298    -0.06500
C865        C  0.89118589  0.27231512  0.75771346    -0.17700
C866        C  0.85963487  0.27374301  0.75758765     0.10700
S867        S  0.90584170  0.19048290  0.74798362    -0.32700
S868        S  0.84313264  0.30696887  0.75732123    -0.32700
H869        H  0.82232661  0.30106418  0.72405969     0.28700
H870        H  0.92755182  0.19868237  0.71735321     0.28700
H871        H  0.84477083  0.20626590  0.75309496     0.19300
H872        H  0.90405029  0.29086538  0.75908707     0.19300
C873        C  0.65970824  0.75220176  0.25125056    -0.06500
C874        C  0.64331028  0.74444219  0.28798891    -0.17700
C875        C  0.61172186  0.74558695  0.28835200     0.10700
C876        C  0.59592007  0.75403710  0.25065401    -0.06500
C877        C  0.61251068  0.76238022  0.21417841    -0.17700
C878        C  0.64416790  0.76177407  0.21425406     0.10700
S879        S  0.59309495  0.73706638  0.33856074    -0.32700
S880        S  0.66352408  0.77338226  0.16627195    -0.32700
H881        H  0.68780510  0.78525920  0.18861636     0.28700
H882        H  0.57086242  0.75724063  0.33496953     0.28700
H883        H  0.65524240  0.73764925  0.31677657     0.19300
H884        H  0.60075355  0.76912135  0.18522757     0.19300
C885        C  0.84548850  0.74843122  0.24555147    -0.06500
C886        C  0.86174354  0.72417945  0.24761185    -0.17700
C887        C  0.89334177  0.72388578  0.24512585     0.10700
C888        C  0.90948424  0.74852339  0.24196405    -0.06500
C889        C  0.89308970  0.77267930  0.23848951    -0.17700
C890        C  0.86147834  0.77285154  0.23938972     0.10700
S891        S  0.91136789  0.69128358  0.24425470    -0.32700
S892        S  0.84297365  0.80477488  0.23034626    -0.32700
H893        H  0.82000781  0.79405300  0.20384143     0.28700
H894        H  0.93228587  0.69833450  0.21177792     0.28700
H895        H  0.84975207  0.70527294  0.25106390     0.19300
H896        H  0.90494505  0.79164734  0.23498791     0.19300
loop_ 
_geom_bond_atom_site_label_1 
_geom_bond_atom_site_label_2 
_geom_bond_distance 
_geom_bond_site_symmetry_2 
_ccdc_geom_bond_type 
O1           Cu9   2.009       .  S
O1           C11   1.278       .  A
O2           Cu9   2.005       .  S
O2           C12   1.277       .  A
O3           Cu9   2.007       .  S
O3           C13   1.277       .  A
O4           Cu9   2.006       .  S
O4           C14   1.277       .  A
O5          Cu10   2.016       .  S
O5           C14   1.279       .  A
O6          Cu10   2.017       .  S
O6           C13   1.278       .  A
O7          Cu10   2.003       .  S
O7           C12   1.277       .  A
O8          Cu10   2.014       .  S
O8           C11   1.278       .  A
Cu9         Cu10   2.376       .  S
C11         C170   1.470       .  S
C12          C98   1.465       .  S
C13         C425   1.471       .  S
C14         C437   1.482       .  S
O15         Cu23   2.005       .  S
O15          C25   1.277       .  A
O16        Cu471   2.012       .  S
O16          C26   1.277       .  A
O17         Cu23   2.024       .  S
O17          C27   1.280       .  A
O18        Cu471   2.022       .  S
O18          C28   1.281       .  A
O19         Cu24   2.001       .  S
O19          C28   1.276       .  A
O20        Cu472   2.000       .  S
O20          C27   1.276       .  A
O21         Cu24   2.006       .  S
O21          C26   1.278       .  A
O22        Cu472   2.011       .  S
O22          C25   1.277       .  A
Cu23        O464   2.012       .  S
Cu23        O466   2.022   1_455  S
Cu23       Cu472   2.373       .  S
Cu24        O468   2.000       .  S
Cu24        O470   2.011       .  S
Cu24       Cu471   2.373       .  S
C25         C256   1.468       .  S
C26         C184   1.469       .  S
C27         C428   1.482       .  S
C28         C440   1.486       .  S
O29         Cu37   2.009       .  S
O29          C39   1.279       .  A
O30         Cu37   2.008       .  S
O30          C40   1.278       .  A
O31         Cu37   2.010       .  S
O31          C41   1.278       .  A
O32         Cu37   2.009       .  S
O32          C42   1.277       .  A
O33         Cu38   2.010       .  S
O33          C42   1.278       .  A
O34         Cu38   2.015       .  S
O34          C41   1.278       .  A
O35         Cu38   2.002       .  S
O35          C40   1.277       .  A
O36         Cu38   2.006       .  S
O36          C39   1.277       .  A
Cu37        Cu38   2.373       .  S
C39         C413   1.483       .  S
C40         C401   1.479       .  S
C41         C146   1.471       .  S
C42         C122   1.469       .  S
O43         Cu51   2.001       .  S
O43          C53   1.276       .  A
O44        Cu499   1.999       .  S
O44          C54   1.276       .  A
O45         Cu51   2.009       .  S
O45          C55   1.279       .  A
O46        Cu499   2.011   1_455  S
O46          C56   1.279       .  A
O47         Cu52   2.001   1_455  S
O47          C56   1.276       .  A
O48        Cu500   2.004       .  S
O48          C55   1.277       .  A
O49         Cu52   2.020       .  S
O49          C54   1.279       .  A
O50        Cu500   2.018       .  S
O50          C53   1.279       .  A
Cu51        O492   1.999       .  S
Cu51        O494   2.011       .  S
Cu51       Cu500   2.373       .  S
Cu52        O496   2.004       .  S
Cu52        O498   2.018   1_655  S
Cu52       Cu499   2.373       .  S
C53         C232   1.469       .  S
C54         C208   1.469       .  S
C55         C416   1.480       .  S
C56         C404   1.482       .  S
O57         Cu65   2.004       .  S
O57          C67   1.277       .  A
O58         Cu65   2.003       .  S
O58          C68   1.276       .  A
O59         Cu65   2.002       .  S
O59          C69   1.277       .  A
O60         Cu65   2.008       .  S
O60          C70   1.277       .  A
O61         Cu66   2.003       .  S
O61          C70   1.277       .  A
O62         Cu66   2.009       .  S
O62          C69   1.277       .  A
O63         Cu66   2.019       .  S
O63          C68   1.279       .  A
O64         Cu66   2.021       .  S
O64          C67   1.279       .  A
Cu65        Cu66   2.376       .  S
C67         C377   1.481       .  S
C68         C389   1.472       .  S
C69         C160   1.466       .  S
C70          C88   1.466       .  S
O71        Cu527   2.009       .  S
O71          C81   1.277       .  A
O72         Cu79   2.010   1_455  S
O72          C82   1.279       .  A
O73         Cu79   2.011   1_455  S
O73         C531   1.277       .  A
O74         Cu79   2.002       .  S
O74          C84   1.277       .  A
O75        Cu528   2.013       .  S
O75          C84   1.278       .  A
O76         Cu80   2.012       .  S
O76          C83   1.278       .  A
O77        Cu528   2.016   1_455  S
O77          C82   1.278       .  A
O78         Cu80   2.012       .  S
O78          C81   1.278       .  A
Cu79        O519   2.009       .  S
Cu79       Cu528   2.373       .  S
Cu80        O523   2.013       .  S
Cu80        O525   2.016       .  S
Cu80       Cu527   2.373       .  S
C81         C392   1.474       .  S
C82         C380   1.492       .  S
C83         O521   1.277       .  A
C83         C194   1.470       .  S
C84         C266   1.467       .  S
N85          N86   1.322       .  A
N85          C89   1.346       .  A
N85         Cu93   2.079       .  S
N86          C87   1.343       .  A
N86         Cu92   2.060   1_556  S
C87          C88   1.380       .  A
C87          H90   1.083       .  S
C88          C89   1.384       .  A
C89          H91   1.082       .  S
Cu92         N95   2.060       .  S
Cu93        N103   2.080       .  S
Cu94         N96   2.077       .  S
Cu94        N102   2.078       .  S
N95          N96   1.322       .  A
N95          C99   1.343       .  A
N96          C97   1.345       .  A
C97          C98   1.383       .  A
C97         H100   1.082       .  S
C98          C99   1.380       .  A
C99         H101   1.082       .  S
N102        N103   1.323   1_554  A
N102        C106   1.346       .  A
N103        C104   1.346       .  A
C104        C105   1.386   1_556  A
C104        H107   1.081       .  S
C105        C368   1.484       .  S
C105        C106   1.385       .  A
C106        H108   1.081       .  S
N109        N110   1.322       .  A
N109        C113   1.346       .  A
N109       Cu117   2.079       .  S
N110        C111   1.343       .  A
N110       Cu116   2.063       .  S
C111        C112   1.381       .  A
C111        H114   1.082       .  S
C112        C288   1.467       .  S
C112        C113   1.384       .  A
C113        H115   1.082       .  S
Cu116       N119   2.063   1_554  S
Cu117       N127   2.079       .  S
Cu118       N120   2.083       .  S
Cu118       N126   2.083       .  S
N119        N120   1.322       .  A
N119        C123   1.343       .  A
N120        C121   1.347       .  A
C121        C122   1.385       .  A
C121        H124   1.082       .  S
C122        C123   1.380       .  A
C123        H125   1.082       .  S
N126        N127   1.323   1_556  A
N126        C130   1.346       .  A
N127        C128   1.346       .  A
C128        C129   1.385       .  A
C128        H131   1.081       .  S
C129        C365   1.484       .  S
C129        C130   1.386   1_554  A
C130        H132   1.081       .  S
N133        N134   1.322       .  A
N133        C137   1.346       .  A
N133       Cu141   2.071       .  S
N134        C135   1.344       .  A
N134       Cu140   2.072       .  S
C135        C136   1.382       .  A
C135        H138   1.082       .  S
C136        C287   1.467       .  S
C136        C137   1.383       .  A
C137        H139   1.082       .  S
Cu140       N143   2.073       .  S
Cu141       N151   2.072       .  S
Cu142       N144   2.078       .  S
Cu142       N150   2.078       .  S
N143        N144   1.322       .  A
N143        C147   1.344       .  A
N144        C145   1.347       .  A
C145        C146   1.385       .  A
C145        H148   1.082       .  S
C146        C147   1.383       .  A
C147        H149   1.082       .  S
N150        N151   1.323       .  A
N150        C154   1.345       .  A
N151        C152   1.345       .  A
C152        C153   1.384       .  A
C152        H155   1.081       .  S
C153        C353   1.480       .  S
C153        C154   1.385       .  A
C154        H156   1.081       .  S
N157        N158   1.322       .  A
N157        C161   1.346       .  A
N157       Cu165   2.071       .  S
N158        C159   1.343       .  A
N158       Cu164   2.069       .  S
C159        C160   1.381       .  A
C159        H162   1.082       .  S
C160        C161   1.383       .  A
C161        H163   1.082       .  S
Cu164       N167   2.069       .  S
Cu165       N175   2.071       .  S
Cu166       N168   2.076       .  S
Cu166       N174   2.076       .  S
N167        N168   1.322       .  A
N167        C171   1.344       .  A
N168        C169   1.346       .  A
C169        C170   1.384       .  A
C169        H172   1.082       .  S
C170        C171   1.382       .  A
C171        H173   1.082       .  S
N174        N175   1.322       .  A
N174        C178   1.344       .  A
N175        C176   1.344       .  A
C176        C177   1.385       .  A
C176        H179   1.080       .  S
C177        C356   1.481       .  S
C177        C178   1.385       .  A
C178        H180   1.081       .  S
N181        N182   1.322       .  A
N181        C185   1.348       .  A
N181       Cu189   2.078       .  S
N182        C183   1.343       .  A
N182       Cu188   2.069       .  S
C183        C184   1.380       .  A
C183        H186   1.082       .  S
C184        C185   1.385       .  A
C185        H187   1.082       .  S
Cu188       N191   2.069       .  S
Cu189       N199   2.078       .  S
Cu190       N192   2.075       .  S
Cu190       N198   2.076       .  S
N191        N192   1.322       .  A
N191        C195   1.345       .  A
N192        C193   1.345       .  A
C193        C194   1.384       .  A
C193        H196   1.082       .  S
C194        C195   1.383       .  A
C195        H197   1.082       .  S
N198        N199   1.323       .  A
N198        C202   1.346       .  A
N199        C200   1.344       .  A
C200        C201   1.384       .  A
C200        H203   1.081       .  S
C201        C341   1.481       .  S
C201        C202   1.385       .  A
C202        H204   1.080       .  S
N205        N206   1.322   1_455  A
N205        C209   1.347       .  A
N205       Cu213   2.071       .  S
N206        C207   1.343       .  A
N206       Cu212   2.074       .  S
C207        C208   1.383       .  A
C207        H210   1.082       .  S
C208        C209   1.383   1_655  A
C209        H211   1.082       .  S
Cu212       N215   2.073   1_655  S
Cu213       N223   2.071       .  S
Cu214       N216   2.074       .  S
Cu214       N222   2.074       .  S
N215        N216   1.322       .  A
N215        C219   1.345       .  A
N216        C217   1.346       .  A
C217        C218   1.383       .  A
C217        H220   1.082       .  S
C218        C302   1.468       .  S
C218        C219   1.382       .  A
C219        H221   1.082   1_455  S
N222        N223   1.322       .  A
N222        C226   1.345       .  A
N223        C224   1.344       .  A
C224        C225   1.384       .  A
C224        H227   1.081       .  S
C225        C344   1.481       .  S
C225        C226   1.386       .  A
C226        H228   1.080       .  S
N229        N230   1.322       .  A
N229        C233   1.346       .  A
N229       Cu237   2.084       .  S
N230        C231   1.344       .  A
N230       Cu236   2.063   1_556  S
C231        C232   1.380       .  A
C231        H234   1.082       .  S
C232        C233   1.386       .  A
C233        H235   1.082       .  S
Cu236       N239   2.064       .  S
Cu237       N247   2.084       .  S
Cu238       N240   2.080       .  S
Cu238       N246   2.080       .  S
N239        N240   1.321       .  A
N239        C243   1.343       .  A
N240        C241   1.347       .  A
C241        C242   1.386       .  A
C241        H244   1.082       .  S
C242        C301   1.470       .  S
C242        C243   1.381       .  A
C243        H245   1.082       .  S
N246        N247   1.324   1_554  A
N246        C250   1.345       .  A
N247        C248   1.347       .  A
C248        C249   1.384       .  A
C248        H251   1.081       .  S
C249        C329   1.479       .  S
C249        C250   1.383   1_556  A
C250        H252   1.081       .  S
N253        N254   1.322       .  A
N253        C257   1.346       .  A
N253       Cu261   2.074       .  S
N254        C255   1.343       .  A
N254       Cu260   2.067   1_454  S
C255        C256   1.381       .  A
C255        H258   1.082       .  S
C256        C257   1.384       .  A
C257        H259   1.082       .  S
Cu260       N263   2.067       .  S
Cu261       N271   2.075   1_455  S
Cu262       N264   2.077       .  S
Cu262       N270   2.077       .  S
N263        N264   1.322       .  A
N263        C267   1.343       .  A
N264        C265   1.346       .  A
C265        C266   1.384       .  A
C265        H268   1.082       .  S
C266        C267   1.381       .  A
C267        H269   1.082       .  S
N270        N271   1.323   1_556  A
N270        C274   1.346       .  A
N271        C272   1.345       .  A
C272        C273   1.383   1_554  A
C272        H275   1.081   1_655  S
C273        C332   1.479       .  S
C273        C274   1.384       .  A
C274        H276   1.081       .  S
O277       Cu285   2.003       .  S
O277        C287   1.277       .  A
O278       Cu285   2.008       .  S
O278        C288   1.277       .  A
O279       Cu285   2.014       .  S
O279        C289   1.279       .  A
O280       Cu285   2.013       .  S
O280        C290   1.278       .  A
O281       Cu286   2.001       .  S
O281        C290   1.277       .  A
O282       Cu286   2.001       .  S
O282        C289   1.276       .  A
O283       Cu286   2.008       .  S
O283        C288   1.278       .  A
O284       Cu286   2.011       .  S
O284        C287   1.278       .  A
Cu285      Cu286   2.373       .  S
C289        C317   1.485       .  S
C290        C305   1.482       .  S
O291       Cu299   2.010       .  S
O291        C301   1.278       .  A
O292       Cu747   2.007       .  S
O292        C302   1.277       .  A
O293       Cu299   2.005       .  S
O293        C303   1.277       .  A
O294       Cu747   2.004       .  S
O294        C304   1.277       .  A
O295       Cu300   2.010       .  S
O295        C304   1.278       .  A
O296       Cu748   2.010       .  S
O296        C303   1.278       .  A
O297       Cu300   2.010       .  S
O297        C302   1.278       .  A
O298       Cu748   2.012       .  S
O298        C301   1.277       .  A
Cu299       O740   2.007       .  S
Cu299       O742   2.004       .  S
Cu299      Cu748   2.374       .  S
Cu300       O744   2.010   1_455  S
Cu300       O746   2.012       .  S
Cu300      Cu747   2.374       .  S
C303        C320   1.478       .  S
C304        C308   1.480       .  S
C305        C306   1.405       .  A
C305        C310   1.415       .  A
C306        C307   1.398       .  A
C306        H315   1.083       .  S
C307        C308   1.414       .  A
C307        S311   1.803       .  S
C308        C309   1.405       .  A
C309        C310   1.400       .  A
C309        H316   1.083       .  S
C310        S312   1.803       .  S
S311        H314   1.408       .  S
S312        H313   1.408       .  S
C317        C318   1.406       .  A
C317        C322   1.418       .  A
C318        C319   1.399       .  A
C318        H327   1.082       .  S
C319        C320   1.414       .  A
C319        S323   1.804       .  S
C320        C321   1.402       .  A
C321        C322   1.399       .  A
C321        H328   1.083       .  S
C322        S324   1.803       .  S
S323        H326   1.407       .  S
S324        H325   1.408       .  S
C329        C330   1.403       .  A
C329        C782   1.413   1_556  A
C330        C331   1.401       .  A
C330        H339   1.084       .  S
C331        C780   1.414       .  A
C331        S335   1.803       .  S
C332        C333   1.403   1_656  A
C332        C779   1.414       .  A
C333        C334   1.399       .  A
C333        H340   1.084       .  S
C334        C777   1.413   1_454  A
C334        S336   1.803       .  S
S335        H338   1.407       .  S
S336        H337   1.407       .  S
C341        C346   1.414       .  A
C341        C790   1.404       .  A
C342        C343   1.398   1_565  A
C342        C789   1.404   1_455  A
C342        H351   1.084       .  S
C343        C344   1.414       .  A
C343        S347   1.803       .  S
C344        C793   1.405   1_455  A
C345        C346   1.400   1_545  A
C345        C792   1.405       .  A
C345        H352   1.084       .  S
C346        S348   1.803       .  S
S347        H350   1.407       .  S
S348        H349   1.407       .  S
C353        C354   1.404       .  A
C353        C358   1.414       .  A
C354        C355   1.399       .  A
C354        H363   1.084       .  S
C355        C356   1.414       .  A
C355        S359   1.803       .  S
C356        C357   1.404       .  A
C357        C358   1.399       .  A
C357        H364   1.084       .  S
C358        S360   1.803       .  S
S359        H362   1.407       .  S
S360        H361   1.407       .  S
C365        C366   1.404   1_554  A
C365        C370   1.415       .  A
C366        C367   1.401   1_545  A
C366        H375   1.084       .  S
C367        C368   1.415   1_556  A
C367        S371   1.803       .  S
C368        C369   1.404       .  A
C369        C370   1.401   1_565  A
C369        H376   1.084       .  S
C370        S372   1.803       .  S
S371        H374   1.407       .  S
S372        H373   1.407       .  S
C377        C378   1.403       .  A
C377        C382   1.413       .  A
C378        C379   1.403       .  A
C378        H387   1.083       .  S
C379        C380   1.419       .  A
C379        S383   1.799       .  S
C380        C381   1.407       .  A
C381        C382   1.398       .  A
C381        H388   1.083       .  S
C382        S384   1.804       .  S
S383        H386   1.408       .  S
S384        H385   1.408       .  S
C389        C390   1.403       .  A
C389        C394   1.412       .  A
C390        C391   1.400       .  A
C390        H399   1.084       .  S
C391        C392   1.412       .  A
C391        S395   1.804       .  S
C392        C393   1.404       .  A
C393        C394   1.401       .  A
C393        H400   1.084       .  S
C394        S396   1.804       .  S
S395        H398   1.406       .  S
S396        H397   1.406       .  S
C401        C402   1.403       .  A
C401        C406   1.414       .  A
C402        C403   1.399       .  A
C402        H411   1.083       .  S
C403        C404   1.417       .  A
C403        S407   1.803       .  S
C404        C405   1.404       .  A
C405        C406   1.399       .  A
C405        H412   1.082       .  S
C406        S408   1.803       .  S
S407        H410   1.408       .  S
S408        H409   1.408       .  S
C413        C414   1.406       .  A
C413        C418   1.416       .  A
C414        C415   1.399       .  A
C414        H423   1.082       .  S
C415        C416   1.415       .  A
C415        S419   1.803       .  S
C416        C417   1.403       .  A
C417        C418   1.398       .  A
C417        H424   1.083       .  S
C418        S420   1.802       .  S
S419        H422   1.407       .  S
S420        H421   1.408       .  S
C425        C426   1.399       .  A
C425        C430   1.412       .  A
C426        C427   1.400       .  A
C426        H435   1.085       .  S
C427        C428   1.417       .  A
C427        S431   1.803       .  S
C428        C429   1.405       .  A
C429        C430   1.402       .  A
C429        H436   1.084       .  S
C430        S432   1.803       .  S
S431        H434   1.407       .  S
S432        H433   1.405       .  S
C437        C438   1.403       .  A
C437        C442   1.415       .  A
C438        C439   1.401       .  A
C438        H447   1.083       .  S
C439        C440   1.419       .  A
C439        S443   1.803       .  S
C440        C441   1.404       .  A
C441        C442   1.400       .  A
C441        H448   1.082       .  S
C442        S444   1.803       .  S
S443        H446   1.408       .  S
S444        H445   1.407       .  S
O449       Cu457   2.009       .  S
O449        C459   1.278       .  A
O450       Cu457   2.005       .  S
O450        C460   1.277       .  A
O451       Cu457   2.007       .  S
O451        C461   1.277       .  A
O452       Cu457   2.006       .  S
O452        C462   1.277       .  A
O453       Cu458   2.016       .  S
O453        C462   1.279       .  A
O454       Cu458   2.017       .  S
O454        C461   1.278       .  A
O455       Cu458   2.003       .  S
O455        C460   1.277       .  A
O456       Cu458   2.014       .  S
O456        C459   1.278       .  A
Cu457      Cu458   2.376       .  S
C459        C618   1.470       .  S
C460        C546   1.465       .  S
C461        C873   1.471       .  S
C462        C885   1.482       .  S
O463       Cu471   2.005       .  S
O463        C473   1.277       .  A
O464        C474   1.277       .  A
O465       Cu471   2.024       .  S
O465        C475   1.280       .  A
O466        C476   1.281       .  A
O467       Cu472   2.001   1_655  S
O467        C476   1.276       .  A
O468        C475   1.276       .  A
O469       Cu472   2.006       .  S
O469        C474   1.278       .  A
O470        C473   1.277       .  A
C473        C704   1.468       .  S
C474        C632   1.469       .  S
C475        C876   1.482       .  S
C476        C888   1.486       .  S
O477       Cu485   2.009       .  S
O477        C487   1.279       .  A
O478       Cu485   2.008       .  S
O478        C488   1.278       .  A
O479       Cu485   2.010       .  S
O479        C489   1.278       .  A
O480       Cu485   2.009       .  S
O480        C490   1.277       .  A
O481       Cu486   2.010       .  S
O481        C490   1.278       .  A
O482       Cu486   2.015       .  S
O482        C489   1.278       .  A
O483       Cu486   2.002       .  S
O483        C488   1.277       .  A
O484       Cu486   2.006       .  S
O484        C487   1.277       .  A
Cu485      Cu486   2.373       .  S
C487        C861   1.483       .  S
C488        C849   1.479       .  S
C489        C594   1.471       .  S
C490        C570   1.469       .  S
O491       Cu499   2.001       .  S
O491        C501   1.276   1_655  A
O492        C502   1.276       .  A
O493       Cu499   2.009       .  S
O493        C503   1.279       .  A
O494        C504   1.279       .  A
O495       Cu500   2.001       .  S
O495        C504   1.276       .  A
O496        C503   1.277       .  A
O497       Cu500   2.020       .  S
O497        C502   1.279       .  A
O498        C501   1.279       .  A
C501        C680   1.469   1_455  S
C502        C656   1.469       .  S
C503        C864   1.480       .  S
C504        C852   1.482       .  S
O505       Cu513   2.004       .  S
O505        C515   1.277       .  A
O506       Cu513   2.003       .  S
O506        C516   1.276       .  A
O507       Cu513   2.002       .  S
O507        C517   1.277       .  A
O508       Cu513   2.008       .  S
O508        C518   1.277       .  A
O509       Cu514   2.003       .  S
O509        C518   1.277       .  A
O510       Cu514   2.009       .  S
O510        C517   1.277       .  A
O511       Cu514   2.019       .  S
O511        C516   1.279       .  A
O512       Cu514   2.021       .  S
O512        C515   1.279       .  A
Cu513      Cu514   2.376       .  S
C515        C825   1.481       .  S
C516        C837   1.472       .  S
C517        C608   1.466       .  S
C518        C536   1.466       .  S
O519        C529   1.277       .  A
O520       Cu527   2.010       .  S
O520        C530   1.279       .  A
O521       Cu527   2.011       .  S
O522       Cu527   2.002       .  S
O522        C532   1.277       .  A
O523        C532   1.278       .  A
O524       Cu528   2.012       .  S
O524        C531   1.278   1_655  A
O525        C530   1.278       .  A
O526       Cu528   2.012       .  S
O526        C529   1.278       .  A
C529        C840   1.474       .  S
C530        C828   1.492       .  S
C531        C642   1.470       .  S
C532        C714   1.467       .  S
N533        N534   1.322       .  A
N533        C537   1.346       .  A
N533       Cu541   2.079       .  S
N534        C535   1.343       .  A
N534       Cu540   2.060   1_556  S
C535        C536   1.380       .  A
C535        H538   1.083       .  S
C536        C537   1.384       .  A
C537        H539   1.082       .  S
Cu540       N543   2.060       .  S
Cu541       N551   2.080       .  S
Cu542       N544   2.077       .  S
Cu542       N550   2.078       .  S
N543        N544   1.322       .  A
N543        C547   1.343       .  A
N544        C545   1.345       .  A
C545        C546   1.383       .  A
C545        H548   1.082       .  S
C546        C547   1.380       .  A
C547        H549   1.082       .  S
N550        N551   1.323   1_554  A
N550        C554   1.346       .  A
N551        C552   1.346       .  A
C552        C553   1.386   1_556  A
C552        H555   1.081       .  S
C553        C816   1.484       .  S
C553        C554   1.385       .  A
C554        H556   1.081       .  S
N557        N558   1.322       .  A
N557        C561   1.346       .  A
N557       Cu565   2.079       .  S
N558        C559   1.343       .  A
N558       Cu564   2.063       .  S
C559        C560   1.381       .  A
C559        H562   1.083       .  S
C560        C736   1.467       .  S
C560        C561   1.384       .  A
C561        H563   1.082       .  S
Cu564       N567   2.063   1_554  S
Cu565       N575   2.079       .  S
Cu566       N568   2.083       .  S
Cu566       N574   2.083       .  S
N567        N568   1.322       .  A
N567        C571   1.343       .  A
N568        C569   1.347       .  A
C569        C570   1.385       .  A
C569        H572   1.082       .  S
C570        C571   1.380       .  A
C571        H573   1.082       .  S
N574        N575   1.323   1_556  A
N574        C578   1.346       .  A
N575        C576   1.346       .  A
C576        C577   1.385       .  A
C576        H579   1.081       .  S
C577        C813   1.484       .  S
C577        C578   1.386   1_554  A
C578        H580   1.081       .  S
N581        N582   1.322       .  A
N581        C585   1.346       .  A
N581       Cu589   2.071       .  S
N582        C583   1.344       .  A
N582       Cu588   2.072       .  S
C583        C584   1.382       .  A
C583        H586   1.082       .  S
C584        C735   1.467       .  S
C584        C585   1.383       .  A
C585        H587   1.082       .  S
Cu588       N591   2.073       .  S
Cu589       N599   2.072       .  S
Cu590       N592   2.078       .  S
Cu590       N598   2.078       .  S
N591        N592   1.322       .  A
N591        C595   1.344       .  A
N592        C593   1.347       .  A
C593        C594   1.385       .  A
C593        H596   1.082       .  S
C594        C595   1.383       .  A
C595        H597   1.082       .  S
N598        N599   1.323       .  A
N598        C602   1.345       .  A
N599        C600   1.345       .  A
C600        C601   1.384       .  A
C600        H603   1.081       .  S
C601        C801   1.480       .  S
C601        C602   1.385       .  A
C602        H604   1.081       .  S
N605        N606   1.322       .  A
N605        C609   1.346       .  A
N605       Cu613   2.071       .  S
N606        C607   1.343       .  A
N606       Cu612   2.069       .  S
C607        C608   1.381       .  A
C607        H610   1.082       .  S
C608        C609   1.383       .  A
C609        H611   1.082       .  S
Cu612       N615   2.069       .  S
Cu613       N623   2.071       .  S
Cu614       N616   2.076       .  S
Cu614       N622   2.076       .  S
N615        N616   1.322       .  A
N615        C619   1.344       .  A
N616        C617   1.346       .  A
C617        C618   1.384       .  A
C617        H620   1.082       .  S
C618        C619   1.382       .  A
C619        H621   1.082       .  S
N622        N623   1.322       .  A
N622        C626   1.344       .  A
N623        C624   1.344       .  A
C624        C625   1.385       .  A
C624        H627   1.080       .  S
C625        C804   1.481       .  S
C625        C626   1.385       .  A
C626        H628   1.081       .  S
N629        N630   1.322   1_655  A
N629        C633   1.348       .  A
N629       Cu637   2.078       .  S
N630        C631   1.343       .  A
N630       Cu636   2.069       .  S
C631        C632   1.380       .  A
C631        H634   1.082       .  S
C632        C633   1.385   1_455  A
C633        H635   1.082       .  S
Cu636       N639   2.069       .  S
Cu637       N647   2.078       .  S
Cu638       N640   2.075       .  S
Cu638       N646   2.076   1_455  S
N639        N640   1.322       .  A
N639        C643   1.345       .  A
N640        C641   1.345       .  A
C641        C642   1.384       .  A
C641        H644   1.082       .  S
C642        C643   1.383       .  A
C643        H645   1.082       .  S
N646        N647   1.323       .  A
N646        C650   1.346       .  A
N647        C648   1.344       .  A
C648        C649   1.384       .  A
C648        H651   1.081       .  S
C649        C789   1.481       .  S
C649        C650   1.385       .  A
C650        H652   1.080   1_655  S
N653        N654   1.322       .  A
N653        C657   1.347       .  A
N653       Cu661   2.071       .  S
N654        C655   1.343       .  A
N654       Cu660   2.073       .  S
C655        C656   1.383       .  A
C655        H658   1.082       .  S
C656        C657   1.383       .  A
C657        H659   1.082       .  S
Cu660       N663   2.073       .  S
Cu661       N671   2.071       .  S
Cu662       N664   2.074       .  S
Cu662       N670   2.074       .  S
N663        N664   1.322       .  A
N663        C667   1.345       .  A
N664        C665   1.346       .  A
C665        C666   1.383       .  A
C665        H668   1.082       .  S
C666        C750   1.468       .  S
C666        C667   1.382       .  A
C667        H669   1.082       .  S
N670        N671   1.322       .  A
N670        C674   1.345       .  A
N671        C672   1.344       .  A
C672        C673   1.384       .  A
C672        H675   1.081       .  S
C673        C792   1.481       .  S
C673        C674   1.386       .  A
C674        H676   1.080       .  S
N677        N678   1.322       .  A
N677        C681   1.346       .  A
N677       Cu685   2.084       .  S
N678        C679   1.344   1_655  A
N678       Cu684   2.063   1_556  S
C679        C680   1.380   1_455  A
C679        H682   1.082       .  S
C680        C681   1.386       .  A
C681        H683   1.082       .  S
Cu684       N687   2.064   1_655  S
Cu685       N695   2.084       .  S
Cu686       N688   2.080       .  S
Cu686       N694   2.080   1_455  S
N687        N688   1.321       .  A
N687        C691   1.343   1_455  A
N688        C689   1.347       .  A
C689        C690   1.386       .  A
C689        H692   1.082       .  S
C690        C749   1.470       .  S
C690        C691   1.381   1_455  A
C691        H693   1.082       .  S
N694        N695   1.324   1_554  A
N694        C698   1.345   1_655  A
N695        C696   1.347       .  A
C696        C697   1.384       .  A
C696        H699   1.081       .  S
C697        C777   1.479       .  S
C697        C698   1.383   1_656  A
C698        H700   1.081       .  S
N701        N702   1.322       .  A
N701        C705   1.346       .  A
N701       Cu709   2.074       .  S
N702        C703   1.343       .  A
N702       Cu708   2.067   1_554  S
C703        C704   1.381       .  A
C703        H706   1.082       .  S
C704        C705   1.384       .  A
C705        H707   1.082       .  S
Cu708       N711   2.067       .  S
Cu709       N719   2.075       .  S
Cu710       N712   2.077       .  S
Cu710       N718   2.077       .  S
N711        N712   1.322       .  A
N711        C715   1.343       .  A
N712        C713   1.346       .  A
C713        C714   1.384       .  A
C713        H716   1.082       .  S
C714        C715   1.381       .  A
C715        H717   1.082       .  S
N718        N719   1.323   1_556  A
N718        C722   1.346       .  A
N719        C720   1.345       .  A
C720        C721   1.383   1_554  A
C720        H723   1.081       .  S
C721        C780   1.479       .  S
C721        C722   1.384       .  A
C722        H724   1.081       .  S
O725       Cu733   2.003       .  S
O725        C735   1.277       .  A
O726       Cu733   2.008       .  S
O726        C736   1.277       .  A
O727       Cu733   2.014       .  S
O727        C737   1.279       .  A
O728       Cu733   2.013       .  S
O728        C738   1.278       .  A
O729       Cu734   2.001       .  S
O729        C738   1.277       .  A
O730       Cu734   2.001       .  S
O730        C737   1.276       .  A
O731       Cu734   2.008       .  S
O731        C736   1.278       .  A
O732       Cu734   2.011       .  S
O732        C735   1.278       .  A
Cu733      Cu734   2.373       .  S
C737        C765   1.485       .  S
C738        C753   1.482       .  S
O739       Cu747   2.010   1_655  S
O739        C749   1.278   1_655  A
O740        C750   1.277       .  A
O741       Cu747   2.005   1_655  S
O741        C751   1.277       .  A
O742        C752   1.277       .  A
O743       Cu748   2.010       .  S
O743        C752   1.278       .  A
O744        C751   1.278       .  A
O745       Cu748   2.010       .  S
O745        C750   1.278       .  A
O746        C749   1.277       .  A
C751        C768   1.478       .  S
C752        C756   1.480       .  S
C753        C754   1.405       .  A
C753        C758   1.415       .  A
C754        C755   1.398       .  A
C754        H763   1.083       .  S
C755        C756   1.414       .  A
C755        S759   1.803       .  S
C756        C757   1.405       .  A
C757        C758   1.400       .  A
C757        H764   1.083       .  S
C758        S760   1.803       .  S
S759        H762   1.408       .  S
S760        H761   1.408       .  S
C765        C766   1.406       .  A
C765        C770   1.418       .  A
C766        C767   1.399       .  A
C766        H775   1.082       .  S
C767        C768   1.414       .  A
C767        S771   1.804       .  S
C768        C769   1.402       .  A
C769        C770   1.399       .  A
C769        H776   1.083       .  S
C770        S772   1.803       .  S
S771        H774   1.407       .  S
S772        H773   1.408       .  S
C777        C778   1.403       .  A
C778        C779   1.401       .  A
C778        H787   1.084       .  S
C779        S783   1.803       .  S
C780        C781   1.403   1_556  A
C781        C782   1.399       .  A
C781        H788   1.084       .  S
C782        S784   1.803       .  S
S783        H786   1.407       .  S
S784        H785   1.407       .  S
C789        C794   1.414       .  A
C790        C791   1.398   1_565  A
C790        H799   1.084       .  S
C791        C792   1.414       .  A
C791        S795   1.803       .  S
C793        C794   1.400   1_545  A
C793        H800   1.084       .  S
C794        S796   1.803       .  S
S795        H798   1.407       .  S
S796        H797   1.407       .  S
C801        C802   1.404       .  A
C801        C806   1.414       .  A
C802        C803   1.399       .  A
C802        H811   1.084       .  S
C803        C804   1.414       .  A
C803        S807   1.803       .  S
C804        C805   1.404       .  A
C805        C806   1.399       .  A
C805        H812   1.084       .  S
C806        S808   1.803       .  S
S807        H810   1.407       .  S
S808        H809   1.407       .  S
C813        C814   1.404   1_554  A
C813        C818   1.415       .  A
C814        C815   1.401   1_545  A
C814        H823   1.084       .  S
C815        C816   1.415   1_556  A
C815        S819   1.803       .  S
C816        C817   1.404       .  A
C817        C818   1.401   1_565  A
C817        H824   1.084       .  S
C818        S820   1.803       .  S
S819        H822   1.407       .  S
S820        H821   1.407       .  S
C825        C826   1.403       .  A
C825        C830   1.413       .  A
C826        C827   1.403       .  A
C826        H835   1.083       .  S
C827        C828   1.419       .  A
C827        S831   1.799       .  S
C828        C829   1.407       .  A
C829        C830   1.398       .  A
C829        H836   1.083       .  S
C830        S832   1.804       .  S
S831        H834   1.408       .  S
S832        H833   1.408       .  S
C837        C838   1.403       .  A
C837        C842   1.412       .  A
C838        C839   1.400       .  A
C838        H847   1.084       .  S
C839        C840   1.412       .  A
C839        S843   1.804       .  S
C840        C841   1.404       .  A
C841        C842   1.401       .  A
C841        H848   1.084       .  S
C842        S844   1.804       .  S
S843        H846   1.406       .  S
S844        H845   1.406       .  S
C849        C850   1.403       .  A
C849        C854   1.414       .  A
C850        C851   1.399       .  A
C850        H859   1.083       .  S
C851        C852   1.417       .  A
C851        S855   1.803       .  S
C852        C853   1.404       .  A
C853        C854   1.399       .  A
C853        H860   1.082       .  S
C854        S856   1.803       .  S
S855        H858   1.408       .  S
S856        H857   1.408       .  S
C861        C862   1.406       .  A
C861        C866   1.416       .  A
C862        C863   1.399       .  A
C862        H871   1.082       .  S
C863        C864   1.415       .  A
C863        S867   1.803       .  S
C864        C865   1.403       .  A
C865        C866   1.398       .  A
C865        H872   1.083       .  S
C866        S868   1.802       .  S
S867        H870   1.407       .  S
S868        H869   1.408       .  S
C873        C874   1.399       .  A
C873        C878   1.412       .  A
C874        C875   1.400       .  A
C874        H883   1.085       .  S
C875        C876   1.417       .  A
C875        S879   1.803       .  S
C876        C877   1.405       .  A
C877        C878   1.402       .  A
C877        H884   1.084       .  S
C878        S880   1.803       .  S
S879        H882   1.407       .  S
S880        H881   1.405       .  S
C885        C886   1.403       .  A
C885        C890   1.415       .  A
C886        C887   1.401       .  A
C886        H895   1.083       .  S
C887        C888   1.419       .  A
C887        S891   1.803       .  S
C888        C889   1.404       .  A
C889        C890   1.400       .  A
C889        H896   1.082       .  S
C890        S892   1.803       .  S
S891        H894   1.408       .  S
S892        H893   1.407       .  S
